Hydrocoumarin


 11 12  0  0  0  0  0  0  0  0999 V2000
   29.7151   54.3097   -8.0303 O   0  0  0  0  0  0  0  0  0  0  0  0
   29.6189   53.9929   -6.5678 C   0  0  0  0  0  0  0  0  0  0  0  0
   29.1252   55.0262   -5.5820 O   0  0  0  0  0  0  0  0  0  0  0  0
   30.0137   52.6458   -6.0801 C   0  0  0  0  0  0  0  0  0  0  0  0
   29.0289   54.7095   -4.1196 C   0  0  0  0  0  0  0  0  0  0  0  0
   29.9174   52.3291   -4.6176 C   0  0  0  0  0  0  0  0  0  0  0  0
   29.4237   53.3625   -3.6318 C   0  0  0  0  0  0  0  0  0  0  0  0
   28.5352   55.7429   -3.1337 C   0  0  0  0  0  0  0  0  0  0  0  0
   29.3275   53.0457   -2.1693 C   0  0  0  0  0  0  0  0  0  0  0  0
   28.4389   55.4262   -1.6713 C   0  0  0  0  0  0  0  0  0  0  0  0
   28.8338   54.0792   -1.1836 C   0  0  0  0  0  0  0  0  0  0  0  0
  1  2  2  0  0  0
  2  3  1  0  0  0
  2  4  1  0  0  0
  3  5  1  0  0  0
  4  6  1  0  0  0
  5  7  2  0  0  0
  5  8  1  0  0  0
  6  7  1  0  0  0
  7  9  1  0  0  0
  8 10  2  0  0  0
  9 11  2  0  0  0
 10 11  1  0  0  0
M  END
> <minimizedAffinity>
-6.35732

$$$$
Coumarin


 11 12  0  0  0  0  0  0  0  0999 V2000
   29.7151   54.3097   -8.0303 O   0  0  0  0  0  0  0  0  0  0  0  0
   29.6189   53.9929   -6.5678 C   0  0  0  0  0  0  0  0  0  0  0  0
   29.1252   55.0262   -5.5820 O   0  0  0  0  0  0  0  0  0  0  0  0
   30.0137   52.6458   -6.0801 C   0  0  0  0  0  0  0  0  0  0  0  0
   29.0289   54.7095   -4.1196 C   0  0  0  0  0  0  0  0  0  0  0  0
   29.9174   52.3291   -4.6176 C   0  0  0  0  0  0  0  0  0  0  0  0
   29.4237   53.3625   -3.6318 C   0  0  0  0  0  0  0  0  0  0  0  0
   28.5352   55.7429   -3.1337 C   0  0  0  0  0  0  0  0  0  0  0  0
   29.3275   53.0457   -2.1693 C   0  0  0  0  0  0  0  0  0  0  0  0
   28.4389   55.4262   -1.6713 C   0  0  0  0  0  0  0  0  0  0  0  0
   28.8338   54.0792   -1.1836 C   0  0  0  0  0  0  0  0  0  0  0  0
  1  2  2  0  0  0
  2  3  1  0  0  0
  2  4  1  0  0  0
  3  5  1  0  0  0
  4  6  2  0  0  0
  5  7  2  0  0  0
  5  8  1  0  0  0
  6  7  1  0  0  0
  7  9  1  0  0  0
  8 10  2  0  0  0
  9 11  2  0  0  0
 10 11  1  0  0  0
M  END
> <minimizedAffinity>
-6.35732

$$$$
Lupeol


 32 36  0  0  0  0  0  0  0  0999 V2000
   25.5234   58.8663    3.1093 O   0  0  0  0  0  0  0  0  0  0  0  0
   26.0716   58.0746    1.9594 C   0  0  0  0  0  0  0  0  0  0  0  0
   26.8402   56.8310    2.2363 C   0  0  0  0  0  0  0  0  0  0  0  0
   25.8452   58.5359    0.5365 C   0  0  0  0  0  0  0  0  0  0  0  0
   27.3885   56.0393    1.0863 C   0  0  0  0  0  0  0  0  0  0  0  0
   27.4094   55.8559    3.2054 C   0  0  0  0  0  0  0  0  0  0  0  0
   26.6402   57.0457    3.7010 C   0  0  0  0  0  0  0  0  0  0  0  0
   26.3935   57.7443   -0.6134 C   0  0  0  0  0  0  0  0  0  0  0  0
   27.1621   56.5006   -0.3366 C   0  0  0  0  0  0  0  0  0  0  0  0
   28.1571   54.7957    1.3632 C   0  0  0  0  0  0  0  0  0  0  0  0
   27.7104   55.7089   -1.4866 C   0  0  0  0  0  0  0  0  0  0  0  0
   26.9358   56.9619   -1.7595 C   0  0  0  0  0  0  0  0  0  0  0  0
   28.7054   54.0040    0.2132 C   0  0  0  0  0  0  0  0  0  0  0  0
   28.4790   54.4653   -1.2097 C   0  0  0  0  0  0  0  0  0  0  0  0
   27.4840   56.1703   -2.9095 C   0  0  0  0  0  0  0  0  0  0  0  0
   29.0273   53.6736   -2.3597 C   0  0  0  0  0  0  0  0  0  0  0  0
   28.2526   54.9266   -2.6326 C   0  0  0  0  0  0  0  0  0  0  0  0
   28.0323   55.3785   -4.0594 C   0  0  0  0  0  0  0  0  0  0  0  0
   28.8009   54.1349   -3.7826 C   0  0  0  0  0  0  0  0  0  0  0  0
   29.7959   52.4300   -2.0828 C   0  0  0  0  0  0  0  0  0  0  0  0
   29.2381   53.2381   -0.9512 C   0  0  0  0  0  0  0  0  0  0  0  0
   29.3492   53.3432   -4.9325 C   0  0  0  0  0  0  0  0  0  0  0  0
   30.3442   51.6383   -3.2327 C   0  0  0  0  0  0  0  0  0  0  0  0
   30.1178   52.0996   -4.6557 C   0  0  0  0  0  0  0  0  0  0  0  0
   29.2854   53.5504   -6.4235 C   0  0  0  0  0  0  0  0  0  0  0  0
   30.5330   51.5320   -5.9773 C   0  0  0  0  0  0  0  0  0  0  0  0
   30.9020   50.8422   -4.5360 C   0  0  0  0  0  0  0  0  0  0  0  0
   30.0184   52.4287   -7.0674 C   0  0  0  0  0  0  0  0  0  0  0  0
   25.0205   59.6789    2.9427 H   0  0  0  0  0  0  0  0  0  0  0  0
   28.6011   54.6915   -7.1468 C   0  0  0  0  0  0  0  0  0  0  0  0
   28.8051   54.8927   -8.6296 C   0  0  0  0  0  0  0  0  0  0  0  0
   27.7041   55.6486   -6.4056 C   0  0  0  0  0  0  0  0  0  0  0  0
  1 29  1  0  0  0
  2  1  1  0  0  0
  2  3  1  0  0  0
  2  4  1  0  0  0
  3  5  1  0  0  0
  3  6  1  0  0  0
  3  7  1  0  0  0
  4  8  1  0  0  0
  5  9  1  0  0  0
  5 10  1  0  0  0
  8  9  1  0  0  0
  9 11  1  0  0  0
  9 12  1  0  0  0
 10 13  1  0  0  0
 11 14  1  0  0  0
 11 15  1  0  0  0
 13 14  1  0  0  0
 14 16  1  0  0  0
 14 17  1  0  0  0
 15 18  1  0  0  0
 16 19  1  0  0  0
 16 20  1  0  0  0
 16 21  1  0  0  0
 19 18  1  0  0  0
 20 23  1  0  0  0
 22 19  1  0  0  0
 22 24  1  0  0  0
 22 25  1  0  0  0
 23 24  1  0  0  0
 24 26  1  0  0  0
 24 27  1  0  0  0
 25 30  1  0  0  0
 25 28  1  0  0  0
 26 28  1  0  0  0
 30 31  2  0  0  0
 30 32  1  0  0  0
M  END
> <minimizedAffinity>
-6.66346

$$$$
Phytol


 22 21  0  0  0  0  0  0  0  0999 V2000
   29.4022   53.0781   -0.3334 C   0  0  0  0  0  0  0  0  0  0  0  0
   30.7297   52.3605   -0.4686 C   0  0  0  0  0  0  0  0  0  0  0  0
   28.7842   53.2830    1.0204 C   0  0  0  0  0  0  0  0  0  0  0  0
   29.3464   54.3253    1.9251 C   0  0  0  0  0  0  0  0  0  0  0  0
   28.9298   55.7567    1.7408 C   0  0  0  0  0  0  0  0  0  0  0  0
   27.6863   56.2833    3.9397 C   0  0  0  0  0  0  0  0  0  0  0  0
   27.7101   56.2536    2.4380 C   0  0  0  0  0  0  0  0  0  0  0  0
   26.5084   56.7231    1.6435 C   0  0  0  0  0  0  0  0  0  0  0  0
   25.5152   55.7887    5.2439 O   0  0  0  0  0  0  0  0  0  0  0  0
   26.4665   56.7802    4.6369 C   0  0  0  0  0  0  0  0  0  0  0  0
   24.7176   56.0988    5.7006 H   0  0  0  0  0  0  0  0  0  0  0  0
   28.6930   53.5894   -1.5403 C   0  0  0  0  0  0  0  0  0  0  0  0
   27.6303   54.6383   -1.3755 C   0  0  0  0  0  0  0  0  0  0  0  0
   27.9494   56.0545   -1.7119 C   0  0  0  0  0  0  0  0  0  0  0  0
   27.3669   56.6602   -2.9571 C   0  0  0  0  0  0  0  0  0  0  0  0
   26.8243   58.0747   -2.9391 C   0  0  0  0  0  0  0  0  0  0  0  0
   27.3300   55.8524   -4.2088 C   0  0  0  0  0  0  0  0  0  0  0  0
   28.5538   55.7927   -5.0779 C   0  0  0  0  0  0  0  0  0  0  0  0
   29.6294   54.8144   -4.7514 C   0  0  0  0  0  0  0  0  0  0  0  0
   29.4904   53.3921   -5.2144 C   0  0  0  0  0  0  0  0  0  0  0  0
   30.2368   52.2798   -4.5063 C   0  0  0  0  0  0  0  0  0  0  0  0
   28.6098   53.0899   -6.3781 C   0  0  0  0  0  0  0  0  0  0  0  0
  9 10  1  0  0  0
  9 11  1  0  0  0
 10  6  1  0  0  0
  6  7  2  0  0  0
  7  5  1  0  0  0
  7  8  1  0  0  0
  5  4  1  0  0  0
  4  3  1  0  0  0
  3  1  1  0  0  0
  1 12  1  0  0  0
  1  2  1  0  0  0
 12 13  1  0  0  0
 13 14  1  0  0  0
 14 15  1  0  0  0
 15 17  1  0  0  0
 15 16  1  0  0  0
 17 18  1  0  0  0
 18 19  1  0  0  0
 19 20  1  0  0  0
 20 21  1  0  0  0
 20 22  1  0  0  0
M  END
> <minimizedAffinity>
-6.10150

$$$$
Taxifolin


 27 29  0  0  0  0  0  0  0  0999 V2000
   30.1273   52.0120   -1.2952 O   0  0  0  0  0  0  0  0  0  0  0  0
   29.3259   53.2932   -1.3108 C   0  0  0  0  0  0  0  0  0  0  0  0
   28.9823   53.9658   -2.6217 C   0  0  0  0  0  0  0  0  0  0  0  0
   28.8685   53.9023   -0.0274 C   0  0  0  0  0  0  0  0  0  0  0  0
   28.1809   55.2471   -2.6372 C   0  0  0  0  0  0  0  0  0  0  0  0
   29.4282   53.3774   -3.9288 C   0  0  0  0  0  0  0  0  0  0  0  0
   29.2006   53.2503    1.2598 O   0  0  0  0  0  0  0  0  0  0  0  0
   28.0671   55.1836   -0.0430 C   0  0  0  0  0  0  0  0  0  0  0  0
   27.7235   55.8562   -1.3538 O   0  0  0  0  0  0  0  0  0  0  0  0
   27.8374   55.9197   -3.9481 C   0  0  0  0  0  0  0  0  0  0  0  0
   30.2182   52.1167   -3.9368 O   0  0  0  0  0  0  0  0  0  0  0  0
   29.0847   54.0500   -5.2396 C   0  0  0  0  0  0  0  0  0  0  0  0
   28.2833   55.3313   -5.2552 C   0  0  0  0  0  0  0  0  0  0  0  0
   27.9397   56.0039   -6.5661 O   0  0  0  0  0  0  0  0  0  0  0  0
   29.7150   52.4279    1.2684 H   0  0  0  0  0  0  0  0  0  0  0  0
   30.4990   51.7450   -4.7498 H   0  0  0  0  0  0  0  0  0  0  0  0
   27.4425   56.7981   -6.5689 H   0  0  0  0  0  0  0  0  0  0  0  0
   27.6097   55.7926    1.2405 C   0  0  0  0  0  0  0  0  0  0  0  0
   28.4204   55.6254    2.4682 C   0  0  0  0  0  0  0  0  0  0  0  0
   26.3199   56.5791    1.2856 C   0  0  0  0  0  0  0  0  0  0  0  0
   27.9630   56.2345    3.7516 C   0  0  0  0  0  0  0  0  0  0  0  0
   25.8625   57.1881    2.5691 C   0  0  0  0  0  0  0  0  0  0  0  0
   28.7736   56.0673    4.9793 O   0  0  0  0  0  0  0  0  0  0  0  0
   26.6732   57.0210    3.7968 C   0  0  0  0  0  0  0  0  0  0  0  0
   26.2158   57.6300    5.0803 O   0  0  0  0  0  0  0  0  0  0  0  0
   29.5731   55.5795    4.9500 H   0  0  0  0  0  0  0  0  0  0  0  0
   26.7282   57.5247    5.8576 H   0  0  0  0  0  0  0  0  0  0  0  0
  1  2  2  0  0  0
  2  3  1  0  0  0
  2  4  1  0  0  0
  3  5  2  0  0  0
  3  6  1  0  0  0
  4  7  1  0  0  0
  4  8  1  0  0  0
  5  9  1  0  0  0
  5 10  1  0  0  0
  6 11  1  0  0  0
  6 12  2  0  0  0
  7 15  1  0  0  0
  8 18  1  0  0  0
  8  9  1  0  0  0
 10 13  2  0  0  0
 11 16  1  0  0  0
 12 13  1  0  0  0
 18 19  2  0  0  0
 18 20  1  0  0  0
 13 14  1  0  0  0
 19 21  1  0  0  0
 20 22  2  0  0  0
 14 17  1  0  0  0
 21 23  1  0  0  0
 21 24  2  0  0  0
 22 24  1  0  0  0
 23 26  1  0  0  0
 24 25  1  0  0  0
 25 27  1  0  0  0
M  END
> <minimizedAffinity>
-8.96118

$$$$
Medicarpin


 21 24  0  0  0  0  0  0  0  0999 V2000
   30.2126   52.2452   -2.7422 O   0  0  0  0  0  0  0  0  0  0  0  0
   29.6424   52.9759   -3.9259 C   0  0  0  0  0  0  0  0  0  0  0  0
   29.8889   52.7449   -1.3657 C   0  0  0  0  0  0  0  0  0  0  0  0
   28.7638   54.1854   -3.7294 C   0  0  0  0  0  0  0  0  0  0  0  0
   29.9468   52.5028   -5.2966 C   0  0  0  0  0  0  0  0  0  0  0  0
   29.0104   53.9543   -1.1690 C   0  0  0  0  0  0  0  0  0  0  0  0
   28.1935   54.9161   -4.9131 C   0  0  0  0  0  0  0  0  0  0  0  0
   28.4401   54.6850   -2.3526 C   0  0  0  0  0  0  0  0  0  0  0  0
   29.3765   53.2336   -6.4803 C   0  0  0  0  0  0  0  0  0  0  0  0
   28.5234   54.6712    0.0629 C   0  0  0  0  0  0  0  0  0  0  0  0
   28.4980   54.4430   -6.2836 C   0  0  0  0  0  0  0  0  0  0  0  0
   27.6049   55.8477   -1.8548 O   0  0  0  0  0  0  0  0  0  0  0  0
   29.6810   52.7604   -7.8510 O   0  0  0  0  0  0  0  0  0  0  0  0
   27.6599   55.8341   -0.3662 C   0  0  0  0  0  0  0  0  0  0  0  0
   28.7437   54.4301    1.5169 C   0  0  0  0  0  0  0  0  0  0  0  0
   27.0322   56.7350    0.6627 C   0  0  0  0  0  0  0  0  0  0  0  0
   28.1161   55.3310    2.5458 C   0  0  0  0  0  0  0  0  0  0  0  0
   27.2526   56.4939    2.1169 C   0  0  0  0  0  0  0  0  0  0  0  0
   30.2266   52.0092   -7.9769 H   0  0  0  0  0  0  0  0  0  0  0  0
   26.6249   57.3947    3.1456 O   0  0  0  0  0  0  0  0  0  0  0  0
   26.2903   56.8777    4.5028 C   0  0  0  0  0  0  0  0  0  0  0  0
  1  2  1  0  0  0
  1  3  1  0  0  0
  2  4  2  0  0  0
  2  5  1  0  0  0
  4  7  1  0  0  0
  4  8  1  0  0  0
  5  9  2  0  0  0
  6  3  1  0  0  0
  6 10  1  0  0  0
  6  8  1  0  0  0
  7 11  2  0  0  0
  8 12  1  0  0  0
  9 13  1  0  0  0
  9 11  1  0  0  0
 10 14  2  0  0  0
 10 15  1  0  0  0
 12 14  1  0  0  0
 13 19  1  0  0  0
 14 16  1  0  0  0
 15 17  2  0  0  0
 16 18  2  0  0  0
 17 18  1  0  0  0
 18 20  1  0  0  0
 20 21  1  0  0  0
M  END
> <minimizedAffinity>
-8.48579

$$$$
Quercetin 3-O-rutinoside


 53 57  0  0  0  0  0  0  0  0999 V2000
   28.7087   54.5153    2.0816 C   0  0  0  0  0  0  0  0  0  0  0  0
   27.6240   54.9802    1.1530 O   0  0  0  0  0  0  0  0  0  0  0  0
   28.9896   55.2266    3.3501 C   0  0  0  0  0  0  0  0  0  0  0  0
   26.8135   56.1769    1.5086 C   0  0  0  0  0  0  0  0  0  0  0  0
   30.0747   54.7404    4.2531 O   0  0  0  0  0  0  0  0  0  0  0  0
   28.1791   56.4233    3.7057 C   0  0  0  0  0  0  0  0  0  0  0  0
   27.0944   56.8883    2.7771 C   0  0  0  0  0  0  0  0  0  0  0  0
   28.4600   57.1346    4.9742 O   0  0  0  0  0  0  0  0  0  0  0  0
   26.2839   58.0849    3.1327 O   0  0  0  0  0  0  0  0  0  0  0  0
   30.2592   55.2058    5.0839 H   0  0  0  0  0  0  0  0  0  0  0  0
   27.9391   57.9159    5.2178 H   0  0  0  0  0  0  0  0  0  0  0  0
   25.5819   58.3898    2.5367 H   0  0  0  0  0  0  0  0  0  0  0  0
   29.5193   53.3187    1.7261 O   0  0  0  0  0  0  0  0  0  0  0  0
   29.3432   55.4400   -0.3708 O   0  0  0  0  0  0  0  0  0  0  0  0
   29.5882   53.9987   -0.7566 C   0  0  0  0  0  0  0  0  0  0  0  0
   29.6761   52.9366    0.2974 C   0  0  0  0  0  0  0  0  0  0  0  0
   29.7495   53.6001   -2.2139 C   0  0  0  0  0  0  0  0  0  0  0  0
   29.9210   51.4954   -0.0884 C   0  0  0  0  0  0  0  0  0  0  0  0
   29.9945   52.1589   -2.5997 C   0  0  0  0  0  0  0  0  0  0  0  0
   29.6661   54.6458   -3.2967 C   0  0  0  0  0  0  0  0  0  0  0  0
   30.0823   51.0967   -1.5456 O   0  0  0  0  0  0  0  0  0  0  0  0
   30.1557   51.7602   -4.0569 C   0  0  0  0  0  0  0  0  0  0  0  0
   29.4256   56.0705   -2.9395 O   0  0  0  0  0  0  0  0  0  0  0  0
   29.8274   54.2471   -4.7540 C   0  0  0  0  0  0  0  0  0  0  0  0
   30.0724   52.8059   -5.1398 C   0  0  0  0  0  0  0  0  0  0  0  0
   30.2337   52.4073   -6.5971 O   0  0  0  0  0  0  0  0  0  0  0  0
   29.3739   56.7200   -3.6129 H   0  0  0  0  0  0  0  0  0  0  0  0
   30.3851   51.5107   -6.8235 H   0  0  0  0  0  0  0  0  0  0  0  0
   30.0089   50.4332    0.9657 C   0  0  0  0  0  0  0  0  0  0  0  0
   29.3510   49.1207    0.7286 C   0  0  0  0  0  0  0  0  0  0  0  0
   30.7572   50.6943    2.2533 C   0  0  0  0  0  0  0  0  0  0  0  0
   29.4389   48.0585    1.7827 C   0  0  0  0  0  0  0  0  0  0  0  0
   30.8392   49.6302    3.2974 C   0  0  0  0  0  0  0  0  0  0  0  0
   28.7810   46.7460    1.5456 O   0  0  0  0  0  0  0  0  0  0  0  0
   30.1872   48.3197    3.0703 C   0  0  0  0  0  0  0  0  0  0  0  0
   30.2692   47.2555    4.1144 O   0  0  0  0  0  0  0  0  0  0  0  0
   28.3190   46.5914    0.7452 H   0  0  0  0  0  0  0  0  0  0  0  0
   29.8570   46.4262    3.9715 H   0  0  0  0  0  0  0  0  0  0  0  0
   25.7288   56.6419    0.5801 C   0  0  0  0  0  0  0  0  0  0  0  0
   25.9261   57.8612   -0.2947 O   0  0  0  0  0  0  0  0  0  0  0  0
   26.4221   57.7244   -1.7056 C   0  0  0  0  0  0  0  0  0  0  0  0
   26.4405   56.3770   -2.3945 O   0  0  0  0  0  0  0  0  0  0  0  0
   26.9019   58.9285   -2.4372 C   0  0  0  0  0  0  0  0  0  0  0  0
   26.9366   56.2402   -3.8055 C   0  0  0  0  0  0  0  0  0  0  0  0
   26.8805   60.2435   -1.7558 O   0  0  0  0  0  0  0  0  0  0  0  0
   27.3979   58.7917   -3.8480 C   0  0  0  0  0  0  0  0  0  0  0  0
   27.4164   57.4443   -4.5370 C   0  0  0  0  0  0  0  0  0  0  0  0
   26.9550   54.8927   -4.4943 C   0  0  0  0  0  0  0  0  0  0  0  0
   27.8778   59.9957   -4.5796 O   0  0  0  0  0  0  0  0  0  0  0  0
   27.9124   57.3075   -5.9479 O   0  0  0  0  0  0  0  0  0  0  0  0
   27.1905   61.0361   -2.2213 H   0  0  0  0  0  0  0  0  0  0  0  0
   28.1993   59.9133   -5.4911 H   0  0  0  0  0  0  0  0  0  0  0  0
   27.9188   56.4378   -6.3776 H   0  0  0  0  0  0  0  0  0  0  0  0
 14 15  2  0  0  0
 15 16  1  0  0  0
 15 17  1  0  0  0
 16 13  1  0  0  0
 16 18  2  0  0  0
 17 19  2  0  0  0
 17 20  1  0  0  0
 18 21  1  0  0  0
 18 29  1  0  0  0
 19 22  1  0  0  0
 19 21  1  0  0  0
 20 23  1  0  0  0
 20 24  2  0  0  0
  1 13  1  0  0  0
  1  2  1  0  0  0
  1  3  1  0  0  0
 29 30  2  0  0  0
 29 31  1  0  0  0
 22 25  2  0  0  0
 23 27  1  0  0  0
 24 25  1  0  0  0
  2  4  1  0  0  0
  3  5  1  0  0  0
  3  6  1  0  0  0
 30 32  1  0  0  0
 31 33  2  0  0  0
 25 26  1  0  0  0
  4  7  1  0  0  0
  4 39  1  0  0  0
  5 10  1  0  0  0
  6  8  1  0  0  0
  6  7  1  0  0  0
 32 34  1  0  0  0
 32 35  2  0  0  0
 33 35  1  0  0  0
 26 28  1  0  0  0
  7  9  1  0  0  0
 39 40  1  0  0  0
  8 11  1  0  0  0
 34 37  1  0  0  0
 35 36  1  0  0  0
  9 12  1  0  0  0
 36 38  1  0  0  0
 41 40  1  0  0  0
 41 42  1  0  0  0
 41 43  1  0  0  0
 42 44  1  0  0  0
 43 45  1  0  0  0
 43 46  1  0  0  0
 44 47  1  0  0  0
 44 48  1  0  0  0
 45 51  1  0  0  0
 46 49  1  0  0  0
 46 47  1  0  0  0
 47 50  1  0  0  0
 49 52  1  0  0  0
 50 53  1  0  0  0
M  END
> <minimizedAffinity>
2.67784

$$$$
Quercetin


 27 29  0  0  0  0  0  0  0  0999 V2000
   30.1224   51.9994   -1.2605 O   0  0  0  0  0  0  0  0  0  0  0  0
   29.3274   53.2831   -1.2820 C   0  0  0  0  0  0  0  0  0  0  0  0
   28.8643   53.9081   -0.0028 C   0  0  0  0  0  0  0  0  0  0  0  0
   28.9836   53.9623   -2.5949 C   0  0  0  0  0  0  0  0  0  0  0  0
   29.1967   53.2494    1.2863 O   0  0  0  0  0  0  0  0  0  0  0  0
   28.0692   55.1918   -0.0244 C   0  0  0  0  0  0  0  0  0  0  0  0
   28.1886   55.2460   -2.6164 C   0  0  0  0  0  0  0  0  0  0  0  0
   29.4354   53.3578   -3.8979 C   0  0  0  0  0  0  0  0  0  0  0  0
   27.7317   55.8608   -1.3370 O   0  0  0  0  0  0  0  0  0  0  0  0
   27.8510   55.9150   -3.9292 C   0  0  0  0  0  0  0  0  0  0  0  0
   30.2191   52.0946   -3.9000 O   0  0  0  0  0  0  0  0  0  0  0  0
   29.0916   54.0370   -5.2108 C   0  0  0  0  0  0  0  0  0  0  0  0
   28.2965   55.3207   -5.2324 C   0  0  0  0  0  0  0  0  0  0  0  0
   27.9590   55.9898   -6.5451 O   0  0  0  0  0  0  0  0  0  0  0  0
   29.6904   52.4531    1.2919 H   0  0  0  0  0  0  0  0  0  0  0  0
   30.5000   51.7190   -4.7112 H   0  0  0  0  0  0  0  0  0  0  0  0
   27.4654   56.7862   -6.5518 H   0  0  0  0  0  0  0  0  0  0  0  0
   27.6123   55.8067    1.2550 C   0  0  0  0  0  0  0  0  0  0  0  0
   28.4116   55.6283    2.4871 C   0  0  0  0  0  0  0  0  0  0  0  0
   26.3345   56.6106    1.2916 C   0  0  0  0  0  0  0  0  0  0  0  0
   27.9547   56.2432    3.7665 C   0  0  0  0  0  0  0  0  0  0  0  0
   25.8775   57.2255    2.5711 C   0  0  0  0  0  0  0  0  0  0  0  0
   28.7540   56.0648    4.9986 O   0  0  0  0  0  0  0  0  0  0  0  0
   26.6769   57.0471    3.8031 C   0  0  0  0  0  0  0  0  0  0  0  0
   26.2199   57.6620    5.0825 O   0  0  0  0  0  0  0  0  0  0  0  0
   29.5468   55.5658    4.9747 H   0  0  0  0  0  0  0  0  0  0  0  0
   26.7256   57.5495    5.8633 H   0  0  0  0  0  0  0  0  0  0  0  0
  1  2  2  0  0  0
  2  3  1  0  0  0
  2  4  1  0  0  0
  3  5  1  0  0  0
  3  6  2  0  0  0
  4  7  2  0  0  0
  4  8  1  0  0  0
  5 15  1  0  0  0
  6  9  1  0  0  0
  6 18  1  0  0  0
  7 10  1  0  0  0
  7  9  1  0  0  0
  8 11  1  0  0  0
  8 12  2  0  0  0
 18 19  2  0  0  0
 18 20  1  0  0  0
 10 13  2  0  0  0
 11 16  1  0  0  0
 12 13  1  0  0  0
 19 21  1  0  0  0
 20 22  2  0  0  0
 13 14  1  0  0  0
 21 23  1  0  0  0
 21 24  2  0  0  0
 22 24  1  0  0  0
 14 17  1  0  0  0
 23 26  1  0  0  0
 24 25  1  0  0  0
 25 27  1  0  0  0
M  END
> <minimizedAffinity>
-8.93860

$$$$
Kaempferol 3-O-rhamnoside


 37 40  0  0  0  0  0  0  0  0999 V2000
   28.8165   56.1184   -1.4023 O   0  0  0  0  0  0  0  0  0  0  0  0
   29.0992   54.6574   -1.6696 C   0  0  0  0  0  0  0  0  0  0  0  0
   29.3275   53.7092   -0.5312 C   0  0  0  0  0  0  0  0  0  0  0  0
   29.1574   54.1235   -3.0909 C   0  0  0  0  0  0  0  0  0  0  0  0
   29.6102   52.2480   -0.7984 C   0  0  0  0  0  0  0  0  0  0  0  0
   29.4401   52.6623   -3.3581 C   0  0  0  0  0  0  0  0  0  0  0  0
   28.9320   55.0526   -4.2566 C   0  0  0  0  0  0  0  0  0  0  0  0
   29.6661   51.7257   -2.2177 O   0  0  0  0  0  0  0  0  0  0  0  0
   29.4960   52.1400   -4.7775 C   0  0  0  0  0  0  0  0  0  0  0  0
   28.6521   56.4946   -4.0166 O   0  0  0  0  0  0  0  0  0  0  0  0
   28.9901   54.5187   -5.6779 C   0  0  0  0  0  0  0  0  0  0  0  0
   29.2729   53.0576   -5.9452 C   0  0  0  0  0  0  0  0  0  0  0  0
   29.3288   52.5351   -7.3646 O   0  0  0  0  0  0  0  0  0  0  0  0
   28.5121   57.0717   -4.7415 H   0  0  0  0  0  0  0  0  0  0  0  0
   29.5045   51.6285   -7.5235 H   0  0  0  0  0  0  0  0  0  0  0  0
   29.8362   51.3114    0.3420 C   0  0  0  0  0  0  0  0  0  0  0  0
   29.4849   49.8477    0.1984 C   0  0  0  0  0  0  0  0  0  0  0  0
   30.4045   51.8171    1.6129 C   0  0  0  0  0  0  0  0  0  0  0  0
   29.7081   48.8995    1.3378 C   0  0  0  0  0  0  0  0  0  0  0  0
   30.6305   50.8803    2.7534 C   0  0  0  0  0  0  0  0  0  0  0  0
   30.2791   49.4168    2.6098 C   0  0  0  0  0  0  0  0  0  0  0  0
   30.5024   48.4686    3.7491 O   0  0  0  0  0  0  0  0  0  0  0  0
   30.8616   48.7819    4.5559 H   0  0  0  0  0  0  0  0  0  0  0  0
   29.2722   54.2240    0.8629 O   0  0  0  0  0  0  0  0  0  0  0  0
   28.3671   55.3589    1.1915 C   0  0  0  0  0  0  0  0  0  0  0  0
   27.5812   56.0229    0.0974 O   0  0  0  0  0  0  0  0  0  0  0  0
   28.2592   55.8127    2.5973 C   0  0  0  0  0  0  0  0  0  0  0  0
   26.6762   57.1578    0.4261 C   0  0  0  0  0  0  0  0  0  0  0  0
   29.0532   55.1326    3.6632 O   0  0  0  0  0  0  0  0  0  0  0  0
   27.3541   56.9476    2.9260 C   0  0  0  0  0  0  0  0  0  0  0  0
   26.5610   57.6207    1.8346 C   0  0  0  0  0  0  0  0  0  0  0  0
   25.8831   57.8309   -0.6651 C   0  0  0  0  0  0  0  0  0  0  0  0
   27.2389   57.4104    4.3345 O   0  0  0  0  0  0  0  0  0  0  0  0
   25.6559   58.7556    2.1632 O   0  0  0  0  0  0  0  0  0  0  0  0
   28.9830   55.4292    4.5841 H   0  0  0  0  0  0  0  0  0  0  0  0
   26.6509   58.1495    4.5556 H   0  0  0  0  0  0  0  0  0  0  0  0
   25.1459   59.1883    1.4607 H   0  0  0  0  0  0  0  0  0  0  0  0
  1  2  2  0  0  0
  2  3  1  0  0  0
  2  4  1  0  0  0
  3 24  1  0  0  0
  3  5  2  0  0  0
  4  6  2  0  0  0
  4  7  1  0  0  0
 24 25  1  0  0  0
  5  8  1  0  0  0
  5 16  1  0  0  0
  6  9  1  0  0  0
  6  8  1  0  0  0
  7 10  1  0  0  0
  7 11  2  0  0  0
 25 26  1  0  0  0
 25 27  1  0  0  0
 16 17  2  0  0  0
 16 18  1  0  0  0
  9 12  2  0  0  0
 10 14  1  0  0  0
 11 12  1  0  0  0
 26 28  1  0  0  0
 27 29  1  0  0  0
 27 30  1  0  0  0
 17 19  1  0  0  0
 18 20  2  0  0  0
 12 13  1  0  0  0
 28 31  1  0  0  0
 28 32  1  0  0  0
 29 35  1  0  0  0
 30 33  1  0  0  0
 30 31  1  0  0  0
 19 21  2  0  0  0
 20 21  1  0  0  0
 13 15  1  0  0  0
 31 34  1  0  0  0
 33 36  1  0  0  0
 21 22  1  0  0  0
 34 37  1  0  0  0
 22 23  1  0  0  0
M  END
> <minimizedAffinity>
-4.30770

$$$$
Kaempferol 3-O-glucoside


 39 42  0  0  0  0  0  0  0  0999 V2000
   28.7455   56.0645   -1.3556 O   0  0  0  0  0  0  0  0  0  0  0  0
   29.0543   54.6092   -1.6324 C   0  0  0  0  0  0  0  0  0  0  0  0
   29.2892   53.6667   -0.4968 C   0  0  0  0  0  0  0  0  0  0  0  0
   29.1275   54.0982   -3.0565 C   0  0  0  0  0  0  0  0  0  0  0  0
   29.5980   52.2114   -0.7736 C   0  0  0  0  0  0  0  0  0  0  0  0
   29.4363   52.6429   -3.3334 C   0  0  0  0  0  0  0  0  0  0  0  0
   28.8960   55.0218   -4.2196 C   0  0  0  0  0  0  0  0  0  0  0  0
   29.6712   51.7004   -2.1977 O   0  0  0  0  0  0  0  0  0  0  0  0
   29.5095   52.1319   -4.7575 C   0  0  0  0  0  0  0  0  0  0  0  0
   28.5905   56.4584   -3.9701 O   0  0  0  0  0  0  0  0  0  0  0  0
   28.9692   54.5109   -5.6437 C   0  0  0  0  0  0  0  0  0  0  0  0
   29.2756   53.0669   -5.9185 C   0  0  0  0  0  0  0  0  0  0  0  0
   29.3488   52.5559   -7.3427 O   0  0  0  0  0  0  0  0  0  0  0  0
   28.4453   57.0387   -4.6915 H   0  0  0  0  0  0  0  0  0  0  0  0
   29.5405   51.6537   -7.5075 H   0  0  0  0  0  0  0  0  0  0  0  0
   29.8328   51.2689    0.3620 C   0  0  0  0  0  0  0  0  0  0  0  0
   29.4936   49.8020    0.2097 C   0  0  0  0  0  0  0  0  0  0  0  0
   30.4007   51.7837    1.6378 C   0  0  0  0  0  0  0  0  0  0  0  0
   29.7285   48.8595    1.3453 C   0  0  0  0  0  0  0  0  0  0  0  0
   30.6356   50.8413    2.7735 C   0  0  0  0  0  0  0  0  0  0  0  0
   30.2937   49.3629    2.6200 C   0  0  0  0  0  0  0  0  0  0  0  0
   30.5286   48.4205    3.7556 O   0  0  0  0  0  0  0  0  0  0  0  0
   30.8859   48.7378    4.5617 H   0  0  0  0  0  0  0  0  0  0  0  0
   29.2193   54.1588    0.8999 O   0  0  0  0  0  0  0  0  0  0  0  0
   28.3370   55.3160    1.2190 C   0  0  0  0  0  0  0  0  0  0  0  0
   27.5481   55.9739    0.1217 O   0  0  0  0  0  0  0  0  0  0  0  0
   28.2543   55.7974    2.6186 C   0  0  0  0  0  0  0  0  0  0  0  0
   26.6658   57.1310    0.4407 C   0  0  0  0  0  0  0  0  0  0  0  0
   29.0507   55.1226    3.6880 O   0  0  0  0  0  0  0  0  0  0  0  0
   27.3720   56.9544    2.9377 C   0  0  0  0  0  0  0  0  0  0  0  0
   26.5831   57.6125    1.8404 C   0  0  0  0  0  0  0  0  0  0  0  0
   27.2893   57.4359    4.3375 O   0  0  0  0  0  0  0  0  0  0  0  0
   25.7008   58.7696    2.1595 O   0  0  0  0  0  0  0  0  0  0  0  0
   28.9972   55.4371    4.6041 H   0  0  0  0  0  0  0  0  0  0  0  0
   26.7186   58.1884    4.5587 H   0  0  0  0  0  0  0  0  0  0  0  0
   25.1894   59.1981    1.4554 H   0  0  0  0  0  0  0  0  0  0  0  0
   25.8770   57.7891   -0.6564 C   0  0  0  0  0  0  0  0  0  0  0  0
   26.0306   57.3457   -2.0968 O   0  0  0  0  0  0  0  0  0  0  0  0
   26.6442   56.6286   -2.3206 H   0  0  0  0  0  0  0  0  0  0  0  0
  1  2  2  0  0  0
  2  3  1  0  0  0
  2  4  1  0  0  0
  3 24  1  0  0  0
  3  5  2  0  0  0
  4  6  2  0  0  0
  4  7  1  0  0  0
 24 25  1  0  0  0
  5  8  1  0  0  0
  5 16  1  0  0  0
  6  9  1  0  0  0
  6  8  1  0  0  0
  7 10  1  0  0  0
  7 11  2  0  0  0
 25 26  1  0  0  0
 25 27  1  0  0  0
 16 17  2  0  0  0
 16 18  1  0  0  0
  9 12  2  0  0  0
 10 14  1  0  0  0
 11 12  1  0  0  0
 26 28  1  0  0  0
 27 29  1  0  0  0
 27 30  1  0  0  0
 17 19  1  0  0  0
 18 20  2  0  0  0
 12 13  1  0  0  0
 28 31  1  0  0  0
 28 37  1  0  0  0
 29 34  1  0  0  0
 30 32  1  0  0  0
 30 31  1  0  0  0
 19 21  2  0  0  0
 20 21  1  0  0  0
 13 15  1  0  0  0
 31 33  1  0  0  0
 37 38  1  0  0  0
 32 35  1  0  0  0
 21 22  1  0  0  0
 33 36  1  0  0  0
 38 39  1  0  0  0
 22 23  1  0  0  0
M  END
> <minimizedAffinity>
-4.83864

$$$$
Ferulic acid


 16 16  0  0  0  0  0  0  0  0999 V2000
   28.9406   53.8695   -2.5985 C   0  0  0  0  0  0  0  0  0  0  0  0
   29.2489   53.1152   -1.3226 C   0  0  0  0  0  0  0  0  0  0  0  0
   28.1780   55.1401   -2.5403 C   0  0  0  0  0  0  0  0  0  0  0  0
   28.7831   53.6526    0.0007 C   0  0  0  0  0  0  0  0  0  0  0  0
   27.7123   55.6775   -1.2170 C   0  0  0  0  0  0  0  0  0  0  0  0
   28.0205   54.9232    0.0589 C   0  0  0  0  0  0  0  0  0  0  0  0
   27.5548   55.4605    1.3822 O   0  0  0  0  0  0  0  0  0  0  0  0
   27.7461   54.9928    2.1713 H   0  0  0  0  0  0  0  0  0  0  0  0
   28.8533   53.9040   -5.2098 C   0  0  0  0  0  0  0  0  0  0  0  0
   29.4063   53.3322   -3.9218 C   0  0  0  0  0  0  0  0  0  0  0  0
   29.8836   51.9983   -6.6212 O   0  0  0  0  0  0  0  0  0  0  0  0
   29.3190   53.3667   -6.5331 C   0  0  0  0  0  0  0  0  0  0  0  0
   29.2183   54.1965   -7.7565 O   0  0  0  0  0  0  0  0  0  0  0  0
   28.8625   55.0620   -7.7076 H   0  0  0  0  0  0  0  0  0  0  0  0
   29.0914   52.8982    1.2766 O   0  0  0  0  0  0  0  0  0  0  0  0
   29.9415   51.6604    1.2325 C   0  0  0  0  0  0  0  0  0  0  0  0
 11 12  2  0  0  0
 12 13  1  0  0  0
 12  9  1  0  0  0
 13 14  1  0  0  0
  9 10  2  0  0  0
 10  1  1  0  0  0
  1  2  2  0  0  0
  1  3  1  0  0  0
  2  4  1  0  0  0
  3  5  2  0  0  0
  4 15  1  0  0  0
  4  6  2  0  0  0
  5  6  1  0  0  0
 15 16  1  0  0  0
  6  7  1  0  0  0
  7  8  1  0  0  0
M  END
> <minimizedAffinity>
-7.02664

$$$$
Vanillic acid


 14 14  0  0  0  0  0  0  0  0999 V2000
   29.5963   53.4934   -4.2773 C   0  0  0  0  0  0  0  0  0  0  0  0
   29.1188   54.8711   -3.8704 C   0  0  0  0  0  0  0  0  0  0  0  0
   29.7442   52.4333   -3.2426 C   0  0  0  0  0  0  0  0  0  0  0  0
   28.7929   55.1812   -2.4372 C   0  0  0  0  0  0  0  0  0  0  0  0
   29.4183   52.7435   -1.8094 C   0  0  0  0  0  0  0  0  0  0  0  0
   28.9408   54.1211   -1.4025 C   0  0  0  0  0  0  0  0  0  0  0  0
   28.6149   54.4313    0.0307 O   0  0  0  0  0  0  0  0  0  0  0  0
   28.3202   55.2882    0.2693 H   0  0  0  0  0  0  0  0  0  0  0  0
   30.1287   54.2972   -6.6762 O   0  0  0  0  0  0  0  0  0  0  0  0
   29.9222   53.1833   -5.7105 C   0  0  0  0  0  0  0  0  0  0  0  0
   30.0428   51.7848   -6.1845 O   0  0  0  0  0  0  0  0  0  0  0  0
   29.9150   51.0748   -5.5865 H   0  0  0  0  0  0  0  0  0  0  0  0
   28.3153   56.5590   -2.0303 O   0  0  0  0  0  0  0  0  0  0  0  0
   27.0037   57.0972   -2.5264 C   0  0  0  0  0  0  0  0  0  0  0  0
  9 10  2  0  0  0
 10 11  1  0  0  0
 10  1  1  0  0  0
 11 12  1  0  0  0
  1  2  2  0  0  0
  1  3  1  0  0  0
  2  4  1  0  0  0
  3  5  2  0  0  0
  4 13  1  0  0  0
  4  6  2  0  0  0
  5  6  1  0  0  0
 13 14  1  0  0  0
  6  7  1  0  0  0
  7  8  1  0  0  0
M  END
> <minimizedAffinity>
-6.16124

$$$$
Chlorogenic acid


 31 32  0  0  0  0  0  0  0  0999 V2000
   28.2212   55.2717    1.0707 C   0  0  0  0  0  0  0  0  0  0  0  0
   27.7094   56.0157    2.2847 C   0  0  0  0  0  0  0  0  0  0  0  0
   27.7778   55.6703   -0.2866 C   0  0  0  0  0  0  0  0  0  0  0  0
   28.1573   55.6148    3.6750 O   0  0  0  0  0  0  0  0  0  0  0  0
   26.7559   57.1536    2.1157 C   0  0  0  0  0  0  0  0  0  0  0  0
   26.8244   56.8083   -0.4556 C   0  0  0  0  0  0  0  0  0  0  0  0
   26.2440   57.8978    3.3298 O   0  0  0  0  0  0  0  0  0  0  0  0
   26.3125   57.5523    0.7585 C   0  0  0  0  0  0  0  0  0  0  0  0
   27.3409   56.0619   -1.6367 O   0  0  0  0  0  0  0  0  0  0  0  0
   27.8254   56.0959    4.4491 H   0  0  0  0  0  0  0  0  0  0  0  0
   25.6250   58.6365    3.2205 H   0  0  0  0  0  0  0  0  0  0  0  0
   27.9595   55.3252   -1.5122 H   0  0  0  0  0  0  0  0  0  0  0  0
   26.3810   57.2070   -1.8128 C   0  0  0  0  0  0  0  0  0  0  0  0
   27.1569   56.7414   -2.9961 O   0  0  0  0  0  0  0  0  0  0  0  0
   25.1694   58.0654   -1.9797 O   0  0  0  0  0  0  0  0  0  0  0  0
   24.8885   58.3178   -2.8372 H   0  0  0  0  0  0  0  0  0  0  0  0
   29.1747   54.1337    1.2397 O   0  0  0  0  0  0  0  0  0  0  0  0
   29.5785   51.7034    0.5329 O   0  0  0  0  0  0  0  0  0  0  0  0
   29.3189   53.1232    0.1648 C   0  0  0  0  0  0  0  0  0  0  0  0
   29.2077   53.5070   -1.2841 C   0  0  0  0  0  0  0  0  0  0  0  0
   29.7238   52.5888   -2.3726 C   0  0  0  0  0  0  0  0  0  0  0  0
   29.6126   52.9727   -3.8215 C   0  0  0  0  0  0  0  0  0  0  0  0
   28.8726   54.2270   -4.2378 C   0  0  0  0  0  0  0  0  0  0  0  0
   30.2374   52.1098   -4.8624 C   0  0  0  0  0  0  0  0  0  0  0  0
   28.7613   54.6111   -5.6867 C   0  0  0  0  0  0  0  0  0  0  0  0
   30.1311   52.4869   -6.3195 C   0  0  0  0  0  0  0  0  0  0  0  0
   28.0213   55.8654   -6.1031 O   0  0  0  0  0  0  0  0  0  0  0  0
   29.3862   53.7481   -6.7276 C   0  0  0  0  0  0  0  0  0  0  0  0
   29.2800   54.1252   -8.1847 O   0  0  0  0  0  0  0  0  0  0  0  0
   27.6257   56.4132   -5.4540 H   0  0  0  0  0  0  0  0  0  0  0  0
   28.8207   54.9025   -8.4352 H   0  0  0  0  0  0  0  0  0  0  0  0
 18 19  2  0  0  0
 19 17  1  0  0  0
 19 20  1  0  0  0
 20 21  2  0  0  0
  1 17  1  0  0  0
  1  2  1  0  0  0
  1  3  1  0  0  0
 21 22  1  0  0  0
  2  4  1  0  0  0
  2  5  1  0  0  0
  3  6  1  0  0  0
 22 23  2  0  0  0
 22 24  1  0  0  0
  4 10  1  0  0  0
  5  7  1  0  0  0
  5  8  1  0  0  0
  6  9  1  0  0  0
  6 13  1  0  0  0
  6  8  1  0  0  0
 23 25  1  0  0  0
 24 26  2  0  0  0
  7 11  1  0  0  0
  9 12  1  0  0  0
 13 14  2  0  0  0
 13 15  1  0  0  0
 25 27  1  0  0  0
 25 28  2  0  0  0
 26 28  1  0  0  0
 15 16  1  0  0  0
 27 30  1  0  0  0
 28 29  1  0  0  0
 29 31  1  0  0  0
M  END
> <minimizedAffinity>
-9.13746

$$$$
5,5,8a-Trimethyl-3,5,6,7,8,8a hexahydro-2H-chromene


 13 14  0  0  0  0  0  0  0  0999 V2000
   29.0000   54.9281   -5.8280 O   0  0  0  0  0  0  0  0  0  0  0  0
   28.8049   54.8618   -4.3331 C   0  0  0  0  0  0  0  0  0  0  0  0
   29.7014   53.8065   -6.5112 C   0  0  0  0  0  0  0  0  0  0  0  0
   29.3072   53.6873   -3.5433 C   0  0  0  0  0  0  0  0  0  0  0  0
   28.1032   55.9747   -3.6179 C   0  0  0  0  0  0  0  0  0  0  0  0
   28.3023   56.0273   -5.0907 C   0  0  0  0  0  0  0  0  0  0  0  0
   30.2038   52.6320   -5.7214 C   0  0  0  0  0  0  0  0  0  0  0  0
   30.0087   52.5656   -4.2266 C   0  0  0  0  0  0  0  0  0  0  0  0
   29.1121   53.6210   -2.0484 C   0  0  0  0  0  0  0  0  0  0  0  0
   27.9081   55.9083   -2.1229 C   0  0  0  0  0  0  0  0  0  0  0  0
   28.4104   54.7339   -1.3333 C   0  0  0  0  0  0  0  0  0  0  0  0
   29.1013   53.2192   -0.5930 C   0  0  0  0  0  0  0  0  0  0  0  0
   29.8080   52.2962   -1.9959 C   0  0  0  0  0  0  0  0  0  0  0  0
  1  2  1  0  0  0
  1  3  1  0  0  0
  2  4  1  0  0  0
  2  5  1  0  0  0
  2  6  1  0  0  0
  3  7  1  0  0  0
  4  8  2  0  0  0
  4  9  1  0  0  0
  5 10  1  0  0  0
  7  8  1  0  0  0
  9 11  1  0  0  0
  9 12  1  0  0  0
  9 13  1  0  0  0
 10 11  1  0  0  0
M  END
> <minimizedAffinity>
-7.57262

$$$$
6,3′-dimethoxy luteolin -7-O-α-arabinopyranosyl(1→6)-O-β- galactopyranoside


 52 56  0  0  0  0  0  0  0  0999 V2000
   28.3152   53.2169    1.4125 O   0  0  0  0  0  0  0  0  0  0  0  0
   32.8418   51.4803   -3.5998 O   0  0  0  0  0  0  0  0  0  0  0  0
   31.5512   52.2690   -3.6484 C   0  0  0  0  0  0  0  0  0  0  0  0
   30.7476   52.5033   -2.3859 C   0  0  0  0  0  0  0  0  0  0  0  0
   31.0627   52.8222   -4.9478 C   0  0  0  0  0  0  0  0  0  0  0  0
   31.2130   51.9596   -1.0640 C   0  0  0  0  0  0  0  0  0  0  0  0
   29.4570   53.2921   -2.4345 C   0  0  0  0  0  0  0  0  0  0  0  0
   29.7721   53.6109   -4.9964 C   0  0  0  0  0  0  0  0  0  0  0  0
   32.4807   51.1803   -0.9931 O   0  0  0  0  0  0  0  0  0  0  0  0
   30.4095   52.1938    0.1985 C   0  0  0  0  0  0  0  0  0  0  0  0
   28.9686   53.8451   -3.7340 O   0  0  0  0  0  0  0  0  0  0  0  0
   28.6534   53.5262   -1.1719 C   0  0  0  0  0  0  0  0  0  0  0  0
   29.1189   52.9826    0.1499 C   0  0  0  0  0  0  0  0  0  0  0  0
   32.7756   50.8391   -0.1717 H   0  0  0  0  0  0  0  0  0  0  0  0
   29.2837   54.1640   -6.2959 C   0  0  0  0  0  0  0  0  0  0  0  0
   29.9926   53.8120   -7.5564 C   0  0  0  0  0  0  0  0  0  0  0  0
   28.0759   55.0754   -6.3234 C   0  0  0  0  0  0  0  0  0  0  0  0
   29.5041   54.3651   -8.8560 C   0  0  0  0  0  0  0  0  0  0  0  0
   27.5874   55.6285   -7.6229 C   0  0  0  0  0  0  0  0  0  0  0  0
   28.2963   55.2765   -8.8835 C   0  0  0  0  0  0  0  0  0  0  0  0
   27.8078   55.8295  -10.1829 O   0  0  0  0  0  0  0  0  0  0  0  0
   28.2493   55.6120  -10.9803 H   0  0  0  0  0  0  0  0  0  0  0  0
   30.2035   54.0202  -10.1167 O   0  0  0  0  0  0  0  0  0  0  0  0
   31.0832   55.0286  -10.7819 C   0  0  0  0  0  0  0  0  0  0  0  0
   30.8749   51.6502    1.5203 O   0  0  0  0  0  0  0  0  0  0  0  0
   30.3670   50.3328    1.9951 C   0  0  0  0  0  0  0  0  0  0  0  0
   27.6850   54.5535    1.6881 C   0  0  0  0  0  0  0  0  0  0  0  0
   28.2302   55.4607    2.7717 C   0  0  0  0  0  0  0  0  0  0  0  0
   26.5090   54.9929    0.8861 C   0  0  0  0  0  0  0  0  0  0  0  0
   29.4239   55.0347    3.5987 O   0  0  0  0  0  0  0  0  0  0  0  0
   27.6000   56.7972    3.0473 C   0  0  0  0  0  0  0  0  0  0  0  0
   25.8787   56.3294    1.1617 O   0  0  0  0  0  0  0  0  0  0  0  0
   28.1453   57.7044    4.1310 O   0  0  0  0  0  0  0  0  0  0  0  0
   26.4240   57.2366    2.2454 C   0  0  0  0  0  0  0  0  0  0  0  0
   29.8448   54.1760    3.4363 H   0  0  0  0  0  0  0  0  0  0  0  0
   28.9107   57.4253    4.6574 H   0  0  0  0  0  0  0  0  0  0  0  0
   25.7938   58.5731    2.5210 O   0  0  0  0  0  0  0  0  0  0  0  0
   25.8955   59.6589    1.5061 C   0  0  0  0  0  0  0  0  0  0  0  0
   26.0038   59.2998    0.0719 C   0  0  0  0  0  0  0  0  0  0  0  0
   25.1115   59.9562   -0.9312 O   0  0  0  0  0  0  0  0  0  0  0  0
   27.0080   58.2829   -0.3482 C   0  0  0  0  0  0  0  0  0  0  0  0
   25.2278   59.5889   -2.3689 C   0  0  0  0  0  0  0  0  0  0  0  0
   27.8915   57.6400    0.6840 O   0  0  0  0  0  0  0  0  0  0  0  0
   27.1244   57.9155   -1.7860 C   0  0  0  0  0  0  0  0  0  0  0  0
   24.3355   60.2453   -3.3718 O   0  0  0  0  0  0  0  0  0  0  0  0
   26.2320   58.5720   -2.7889 C   0  0  0  0  0  0  0  0  0  0  0  0
   28.1287   56.8986   -2.2060 O   0  0  0  0  0  0  0  0  0  0  0  0
   26.3404   58.2128   -4.2232 O   0  0  0  0  0  0  0  0  0  0  0  0
   27.8060   57.8879    1.6179 H   0  0  0  0  0  0  0  0  0  0  0  0
   24.4057   60.0109   -4.3105 H   0  0  0  0  0  0  0  0  0  0  0  0
   28.7015   56.4805   -1.5442 H   0  0  0  0  0  0  0  0  0  0  0  0
   26.9902   57.5521   -4.5100 H   0  0  0  0  0  0  0  0  0  0  0  0
  2  3  2  0  0  0
  3  4  1  0  0  0
  3  5  1  0  0  0
  4  6  2  0  0  0
  4  7  1  0  0  0
  5  8  2  0  0  0
  6  9  1  0  0  0
  6 10  1  0  0  0
  7 11  1  0  0  0
  7 12  2  0  0  0
  8 15  1  0  0  0
  8 11  1  0  0  0
  9 14  1  0  0  0
 10 25  1  0  0  0
 10 13  2  0  0  0
 12 13  1  0  0  0
 15 16  2  0  0  0
 15 17  1  0  0  0
 25 26  1  0  0  0
 13  1  1  0  0  0
 16 18  1  0  0  0
 17 19  2  0  0  0
 18 23  1  0  0  0
 18 20  2  0  0  0
 19 20  1  0  0  0
 27  1  1  0  0  0
 27 28  1  0  0  0
 27 29  1  0  0  0
 23 24  1  0  0  0
 20 21  1  0  0  0
 28 30  1  0  0  0
 28 31  1  0  0  0
 29 32  1  0  0  0
 21 22  1  0  0  0
 30 35  1  0  0  0
 31 33  1  0  0  0
 31 34  1  0  0  0
 32 34  1  0  0  0
 33 36  1  0  0  0
 34 37  1  0  0  0
 37 38  1  0  0  0
 39 38  1  0  0  0
 39 40  1  0  0  0
 39 41  1  0  0  0
 40 42  1  0  0  0
 41 43  1  0  0  0
 41 44  1  0  0  0
 42 45  1  0  0  0
 42 46  1  0  0  0
 43 49  1  0  0  0
 44 47  1  0  0  0
 44 46  1  0  0  0
 45 50  1  0  0  0
 46 48  1  0  0  0
 47 51  1  0  0  0
 48 52  1  0  0  0
M  END
> <minimizedAffinity>
10.83040

$$$$
Kaempferol 3-O-rutinoside


 51 55  0  0  0  0  0  0  0  0999 V2000
   28.7495   54.4050    2.0856 C   0  0  0  0  0  0  0  0  0  0  0  0
   27.6608   54.8698    1.1547 O   0  0  0  0  0  0  0  0  0  0  0  0
   29.0260   55.1410    3.3460 C   0  0  0  0  0  0  0  0  0  0  0  0
   26.8545   56.0720    1.4942 C   0  0  0  0  0  0  0  0  0  0  0  0
   30.1150   54.6547    4.2514 O   0  0  0  0  0  0  0  0  0  0  0  0
   28.2197   56.3433    3.6855 C   0  0  0  0  0  0  0  0  0  0  0  0
   27.1373   56.7986    2.7519 C   0  0  0  0  0  0  0  0  0  0  0  0
   28.5024   57.0698    4.9431 O   0  0  0  0  0  0  0  0  0  0  0  0
   26.3311   58.0008    3.0913 O   0  0  0  0  0  0  0  0  0  0  0  0
   30.3056   55.1262    5.0774 H   0  0  0  0  0  0  0  0  0  0  0  0
   27.9837   57.8556    5.1763 H   0  0  0  0  0  0  0  0  0  0  0  0
   25.6299   58.2998    2.4914 H   0  0  0  0  0  0  0  0  0  0  0  0
   29.5558   53.2028    1.7461 O   0  0  0  0  0  0  0  0  0  0  0  0
   29.3697   55.2806   -0.3886 O   0  0  0  0  0  0  0  0  0  0  0  0
   29.6042   53.8323   -0.7475 C   0  0  0  0  0  0  0  0  0  0  0  0
   29.6971   52.7920    0.3255 C   0  0  0  0  0  0  0  0  0  0  0  0
   29.7497   53.4045   -2.1965 C   0  0  0  0  0  0  0  0  0  0  0  0
   29.9316   51.3437   -0.0335 C   0  0  0  0  0  0  0  0  0  0  0  0
   29.9842   51.9562   -2.5555 C   0  0  0  0  0  0  0  0  0  0  0  0
   29.6609   54.4277   -3.2980 C   0  0  0  0  0  0  0  0  0  0  0  0
   30.0771   50.9159   -1.4823 O   0  0  0  0  0  0  0  0  0  0  0  0
   30.1297   51.5284   -4.0044 C   0  0  0  0  0  0  0  0  0  0  0  0
   29.4305   55.8589   -2.9674 O   0  0  0  0  0  0  0  0  0  0  0  0
   29.8064   53.9998   -4.7470 C   0  0  0  0  0  0  0  0  0  0  0  0
   30.0409   52.5515   -5.1059 C   0  0  0  0  0  0  0  0  0  0  0  0
   30.1864   52.1238   -6.5549 O   0  0  0  0  0  0  0  0  0  0  0  0
   29.3754   56.4951   -3.6531 H   0  0  0  0  0  0  0  0  0  0  0  0
   30.3316   51.2222   -6.7649 H   0  0  0  0  0  0  0  0  0  0  0  0
   30.0245   50.3035    1.0397 C   0  0  0  0  0  0  0  0  0  0  0  0
   29.5189   48.9022    0.7904 C   0  0  0  0  0  0  0  0  0  0  0  0
   30.6198   50.6673    2.3512 C   0  0  0  0  0  0  0  0  0  0  0  0
   29.6118   47.8619    1.8635 C   0  0  0  0  0  0  0  0  0  0  0  0
   30.7127   49.6271    3.4243 C   0  0  0  0  0  0  0  0  0  0  0  0
   30.2071   48.2258    3.1750 C   0  0  0  0  0  0  0  0  0  0  0  0
   30.2999   47.1855    4.2481 O   0  0  0  0  0  0  0  0  0  0  0  0
   30.6733   47.4023    5.0797 H   0  0  0  0  0  0  0  0  0  0  0  0
   25.7722   56.5274    0.5607 C   0  0  0  0  0  0  0  0  0  0  0  0
   25.9374   57.7841   -0.2635 O   0  0  0  0  0  0  0  0  0  0  0  0
   26.4430   57.7177   -1.6745 C   0  0  0  0  0  0  0  0  0  0  0  0
   26.4721   56.4065   -2.4266 O   0  0  0  0  0  0  0  0  0  0  0  0
   26.9218   58.9563   -2.3430 C   0  0  0  0  0  0  0  0  0  0  0  0
   26.9776   56.3402   -3.8375 C   0  0  0  0  0  0  0  0  0  0  0  0
   26.8938   60.2454   -1.6051 O   0  0  0  0  0  0  0  0  0  0  0  0
   27.4312   58.8999   -3.7591 C   0  0  0  0  0  0  0  0  0  0  0  0
   27.4565   57.5788   -4.5060 C   0  0  0  0  0  0  0  0  0  0  0  0
   27.0067   55.0290   -4.5897 C   0  0  0  0  0  0  0  0  0  0  0  0
   27.9101   60.1386   -4.4276 O   0  0  0  0  0  0  0  0  0  0  0  0
   27.9659   57.5223   -5.9222 O   0  0  0  0  0  0  0  0  0  0  0  0
   27.2048   61.0573   -2.0353 H   0  0  0  0  0  0  0  0  0  0  0  0
   28.2380   60.1016   -5.3398 H   0  0  0  0  0  0  0  0  0  0  0  0
   27.9816   56.6775   -6.3986 H   0  0  0  0  0  0  0  0  0  0  0  0
 14 15  2  0  0  0
 15 16  1  0  0  0
 15 17  1  0  0  0
 16 13  1  0  0  0
 16 18  2  0  0  0
 17 19  2  0  0  0
 17 20  1  0  0  0
 18 21  1  0  0  0
 18 29  1  0  0  0
 19 22  1  0  0  0
 19 21  1  0  0  0
 20 23  1  0  0  0
 20 24  2  0  0  0
  1 13  1  0  0  0
  1  2  1  0  0  0
  1  3  1  0  0  0
 29 30  2  0  0  0
 29 31  1  0  0  0
 22 25  2  0  0  0
 23 27  1  0  0  0
 24 25  1  0  0  0
  2  4  1  0  0  0
  3  5  1  0  0  0
  3  6  1  0  0  0
 30 32  1  0  0  0
 31 33  2  0  0  0
 25 26  1  0  0  0
  4  7  1  0  0  0
  4 37  1  0  0  0
  5 10  1  0  0  0
  6  8  1  0  0  0
  6  7  1  0  0  0
 32 34  2  0  0  0
 33 34  1  0  0  0
 26 28  1  0  0  0
  7  9  1  0  0  0
 37 38  1  0  0  0
  8 11  1  0  0  0
 34 35  1  0  0  0
  9 12  1  0  0  0
 35 36  1  0  0  0
 39 38  1  0  0  0
 39 40  1  0  0  0
 39 41  1  0  0  0
 40 42  1  0  0  0
 41 43  1  0  0  0
 41 44  1  0  0  0
 42 45  1  0  0  0
 42 46  1  0  0  0
 43 49  1  0  0  0
 44 47  1  0  0  0
 44 45  1  0  0  0
 45 48  1  0  0  0
 47 50  1  0  0  0
 48 51  1  0  0  0
M  END
> <minimizedAffinity>
2.89591

$$$$
Quercetin 3-O-rhamnoside


 39 42  0  0  0  0  0  0  0  0999 V2000
   28.8508   55.9955   -1.4090 O   0  0  0  0  0  0  0  0  0  0  0  0
   29.1284   54.5499   -1.6718 C   0  0  0  0  0  0  0  0  0  0  0  0
   29.3459   53.6195   -0.5371 C   0  0  0  0  0  0  0  0  0  0  0  0
   29.1872   54.0375   -3.0955 C   0  0  0  0  0  0  0  0  0  0  0  0
   29.6235   52.1738   -0.7998 C   0  0  0  0  0  0  0  0  0  0  0  0
   29.4648   52.5919   -3.3582 C   0  0  0  0  0  0  0  0  0  0  0  0
   28.9662   54.9815   -4.2605 C   0  0  0  0  0  0  0  0  0  0  0  0
   29.6822   51.6615   -2.2235 O   0  0  0  0  0  0  0  0  0  0  0  0
   29.5236   52.0795   -4.7819 C   0  0  0  0  0  0  0  0  0  0  0  0
   28.6850   56.4406   -4.0281 O   0  0  0  0  0  0  0  0  0  0  0  0
   29.0249   54.4691   -5.6842 C   0  0  0  0  0  0  0  0  0  0  0  0
   29.3030   53.0195   -5.9580 C   0  0  0  0  0  0  0  0  0  0  0  0
   29.3618   52.5071   -7.3818 O   0  0  0  0  0  0  0  0  0  0  0  0
   28.5502   57.0136   -4.7571 H   0  0  0  0  0  0  0  0  0  0  0  0
   29.5357   51.6013   -7.5469 H   0  0  0  0  0  0  0  0  0  0  0  0
   29.8409   51.2434    0.3348 C   0  0  0  0  0  0  0  0  0  0  0  0
   29.4445   49.8071    0.2089 C   0  0  0  0  0  0  0  0  0  0  0  0
   30.4556   51.7599    1.5906 C   0  0  0  0  0  0  0  0  0  0  0  0
   29.6620   48.8766    1.3436 C   0  0  0  0  0  0  0  0  0  0  0  0
   30.6731   50.8294    2.7252 C   0  0  0  0  0  0  0  0  0  0  0  0
   29.2655   47.4404    1.2177 O   0  0  0  0  0  0  0  0  0  0  0  0
   30.2767   49.3932    2.5993 C   0  0  0  0  0  0  0  0  0  0  0  0
   30.4942   48.4627    3.7340 O   0  0  0  0  0  0  0  0  0  0  0  0
   29.4025   46.8520    1.9339 H   0  0  0  0  0  0  0  0  0  0  0  0
   30.8797   48.7751    4.5289 H   0  0  0  0  0  0  0  0  0  0  0  0
   29.2835   54.1454    0.8561 O   0  0  0  0  0  0  0  0  0  0  0  0
   28.3806   55.3056    1.1735 C   0  0  0  0  0  0  0  0  0  0  0  0
   27.5811   55.9893    0.0824 O   0  0  0  0  0  0  0  0  0  0  0  0
   28.2695   55.7904    2.5787 C   0  0  0  0  0  0  0  0  0  0  0  0
   26.6781   57.1495    0.3997 C   0  0  0  0  0  0  0  0  0  0  0  0
   29.0545   55.1196    3.6519 O   0  0  0  0  0  0  0  0  0  0  0  0
   27.3658   56.9544    2.9073 C   0  0  0  0  0  0  0  0  0  0  0  0
   26.5671   57.6343    1.8049 C   0  0  0  0  0  0  0  0  0  0  0  0
   25.8785   57.8332   -0.6914 C   0  0  0  0  0  0  0  0  0  0  0  0
   27.2547   57.4393    4.3124 O   0  0  0  0  0  0  0  0  0  0  0  0
   25.6633   58.7983    2.1334 O   0  0  0  0  0  0  0  0  0  0  0  0
   28.9869   55.4301    4.5684 H   0  0  0  0  0  0  0  0  0  0  0  0
   26.6739   58.1871    4.5229 H   0  0  0  0  0  0  0  0  0  0  0  0
   25.1546   59.2310    1.4299 H   0  0  0  0  0  0  0  0  0  0  0  0
  1  2  2  0  0  0
  2  3  1  0  0  0
  2  4  1  0  0  0
  3 26  1  0  0  0
  3  5  2  0  0  0
  4  6  2  0  0  0
  4  7  1  0  0  0
  5  8  1  0  0  0
  5 16  1  0  0  0
  6  9  1  0  0  0
  6  8  1  0  0  0
  7 10  1  0  0  0
  7 11  2  0  0  0
 27 26  1  0  0  0
 27 28  1  0  0  0
 27 29  1  0  0  0
 16 17  2  0  0  0
 16 18  1  0  0  0
  9 12  2  0  0  0
 10 14  1  0  0  0
 11 12  1  0  0  0
 28 30  1  0  0  0
 29 31  1  0  0  0
 29 32  1  0  0  0
 17 19  1  0  0  0
 18 20  2  0  0  0
 12 13  1  0  0  0
 30 33  1  0  0  0
 30 34  1  0  0  0
 31 37  1  0  0  0
 32 35  1  0  0  0
 32 33  1  0  0  0
 19 21  1  0  0  0
 19 22  2  0  0  0
 20 22  1  0  0  0
 13 15  1  0  0  0
 33 36  1  0  0  0
 35 38  1  0  0  0
 21 24  1  0  0  0
 22 23  1  0  0  0
 36 39  1  0  0  0
 23 25  1  0  0  0
M  END
> <minimizedAffinity>
-4.72994

$$$$
Isorhamnetin


 27 29  0  0  0  0  0  0  0  0999 V2000
   26.2378   58.5176   -2.5637 O   0  0  0  0  0  0  0  0  0  0  0  0
   26.9268   57.2773   -2.0475 C   0  0  0  0  0  0  0  0  0  0  0  0
   27.5718   56.3186   -2.9989 C   0  0  0  0  0  0  0  0  0  0  0  0
   26.9787   56.9795   -0.5607 C   0  0  0  0  0  0  0  0  0  0  0  0
   27.5253   56.6030   -4.4555 O   0  0  0  0  0  0  0  0  0  0  0  0
   28.2607   55.0783   -2.4825 C   0  0  0  0  0  0  0  0  0  0  0  0
   27.6676   55.7392   -0.0444 C   0  0  0  0  0  0  0  0  0  0  0  0
   26.3391   57.9248    0.4208 C   0  0  0  0  0  0  0  0  0  0  0  0
   28.3073   54.7901   -0.9999 O   0  0  0  0  0  0  0  0  0  0  0  0
   27.7141   55.4510    1.4383 C   0  0  0  0  0  0  0  0  0  0  0  0
   25.6555   59.1517   -0.0655 O   0  0  0  0  0  0  0  0  0  0  0  0
   26.3910   57.6269    1.9075 C   0  0  0  0  0  0  0  0  0  0  0  0
   27.0799   56.3866    2.4238 C   0  0  0  0  0  0  0  0  0  0  0  0
   27.1264   56.0985    3.9065 O   0  0  0  0  0  0  0  0  0  0  0  0
   27.0959   57.3748   -4.7687 H   0  0  0  0  0  0  0  0  0  0  0  0
   25.2576   59.7398    0.5459 H   0  0  0  0  0  0  0  0  0  0  0  0
   27.5555   55.3270    4.2207 H   0  0  0  0  0  0  0  0  0  0  0  0
   28.9003   54.1293   -3.4379 C   0  0  0  0  0  0  0  0  0  0  0  0
   28.9569   54.4579   -4.8789 C   0  0  0  0  0  0  0  0  0  0  0  0
   29.4896   52.8339   -2.9336 C   0  0  0  0  0  0  0  0  0  0  0  0
   29.5965   53.5089   -5.8343 C   0  0  0  0  0  0  0  0  0  0  0  0
   30.1339   51.8747   -3.8852 C   0  0  0  0  0  0  0  0  0  0  0  0
   30.1858   52.2135   -5.3300 C   0  0  0  0  0  0  0  0  0  0  0  0
   30.8300   51.2544   -6.2815 O   0  0  0  0  0  0  0  0  0  0  0  0
   30.8693   51.4564   -7.1956 H   0  0  0  0  0  0  0  0  0  0  0  0
   29.6531   53.8376   -7.2752 O   0  0  0  0  0  0  0  0  0  0  0  0
   28.5496   54.6179   -7.9045 C   0  0  0  0  0  0  0  0  0  0  0  0
  1  2  2  0  0  0
  2  3  1  0  0  0
  2  4  1  0  0  0
  3  5  1  0  0  0
  3  6  2  0  0  0
  4  7  2  0  0  0
  4  8  1  0  0  0
  5 15  1  0  0  0
  6  9  1  0  0  0
  6 18  1  0  0  0
  7 10  1  0  0  0
  7  9  1  0  0  0
  8 11  1  0  0  0
  8 12  2  0  0  0
 18 19  2  0  0  0
 18 20  1  0  0  0
 10 13  2  0  0  0
 11 16  1  0  0  0
 12 13  1  0  0  0
 19 21  1  0  0  0
 20 22  2  0  0  0
 13 14  1  0  0  0
 21 26  1  0  0  0
 21 23  2  0  0  0
 22 23  1  0  0  0
 14 17  1  0  0  0
 26 27  1  0  0  0
 23 24  1  0  0  0
 24 25  1  0  0  0
M  END
> <minimizedAffinity>
-7.13835

$$$$
Isorhamnetin-3-O-rutioside


 53 57  0  0  0  0  0  0  0  0999 V2000
   27.5983   54.0513    1.2712 C   0  0  0  0  0  0  0  0  0  0  0  0
   26.6006   55.1650    1.1273 O   0  0  0  0  0  0  0  0  0  0  0  0
   28.6880   54.1218    2.2725 C   0  0  0  0  0  0  0  0  0  0  0  0
   26.7040   56.3637    2.0040 C   0  0  0  0  0  0  0  0  0  0  0  0
   29.6648   52.9986    2.3920 O   0  0  0  0  0  0  0  0  0  0  0  0
   28.7913   55.3205    3.1493 C   0  0  0  0  0  0  0  0  0  0  0  0
   27.7946   56.4439    3.0125 C   0  0  0  0  0  0  0  0  0  0  0  0
   29.8819   55.4007    4.1577 O   0  0  0  0  0  0  0  0  0  0  0  0
   27.8980   57.6426    3.8893 O   0  0  0  0  0  0  0  0  0  0  0  0
   30.3784   53.0442    3.0473 H   0  0  0  0  0  0  0  0  0  0  0  0
   29.9550   56.1789    4.7321 H   0  0  0  0  0  0  0  0  0  0  0  0
   27.2565   58.3649    3.8008 H   0  0  0  0  0  0  0  0  0  0  0  0
   27.4949   52.8525    0.3944 O   0  0  0  0  0  0  0  0  0  0  0  0
   26.6807   54.5461   -1.9296 O   0  0  0  0  0  0  0  0  0  0  0  0
   27.8904   53.6436   -2.0247 C   0  0  0  0  0  0  0  0  0  0  0  0
   28.2872   52.8020   -0.8565 C   0  0  0  0  0  0  0  0  0  0  0  0
   28.7054   53.5861   -3.2991 C   0  0  0  0  0  0  0  0  0  0  0  0
   29.4970   51.8995   -0.9517 C   0  0  0  0  0  0  0  0  0  0  0  0
   29.9152   52.6835   -3.3944 C   0  0  0  0  0  0  0  0  0  0  0  0
   28.3313   54.4206   -4.4909 C   0  0  0  0  0  0  0  0  0  0  0  0
   30.3120   51.8420   -2.2261 O   0  0  0  0  0  0  0  0  0  0  0  0
   30.7301   52.6260   -4.6688 C   0  0  0  0  0  0  0  0  0  0  0  0
   27.1441   55.3161   -4.4192 O   0  0  0  0  0  0  0  0  0  0  0  0
   29.1462   54.3631   -5.7654 C   0  0  0  0  0  0  0  0  0  0  0  0
   30.3560   53.4606   -5.8605 C   0  0  0  0  0  0  0  0  0  0  0  0
   31.1710   53.4031   -7.1351 O   0  0  0  0  0  0  0  0  0  0  0  0
   26.9062   55.8389   -5.1596 H   0  0  0  0  0  0  0  0  0  0  0  0
   31.9195   52.8418   -7.1876 H   0  0  0  0  0  0  0  0  0  0  0  0
   29.8938   51.0580    0.2165 C   0  0  0  0  0  0  0  0  0  0  0  0
   29.3705   49.6778    0.3455 C   0  0  0  0  0  0  0  0  0  0  0  0
   30.8290   51.6153    1.2663 C   0  0  0  0  0  0  0  0  0  0  0  0
   29.7673   48.8363    1.5137 C   0  0  0  0  0  0  0  0  0  0  0  0
   31.2331   50.7779    2.4427 C   0  0  0  0  0  0  0  0  0  0  0  0
   30.7025   49.3936    2.5635 C   0  0  0  0  0  0  0  0  0  0  0  0
   31.1066   48.5562    3.7399 O   0  0  0  0  0  0  0  0  0  0  0  0
   30.7794   47.6826    3.8277 H   0  0  0  0  0  0  0  0  0  0  0  0
   29.2441   47.4561    1.6428 O   0  0  0  0  0  0  0  0  0  0  0  0
   28.7107   46.7456    0.4425 C   0  0  0  0  0  0  0  0  0  0  0  0
   25.7073   57.4871    1.8673 C   0  0  0  0  0  0  0  0  0  0  0  0
   26.0329   58.6924    1.0009 O   0  0  0  0  0  0  0  0  0  0  0  0
   26.5037   58.4976   -0.4185 C   0  0  0  0  0  0  0  0  0  0  0  0
   27.6116   57.5030   -0.7235 O   0  0  0  0  0  0  0  0  0  0  0  0
   25.8836   59.2796   -1.5232 C   0  0  0  0  0  0  0  0  0  0  0  0
   28.0825   57.3081   -2.1428 C   0  0  0  0  0  0  0  0  0  0  0  0
   24.8048   60.2448   -1.2078 O   0  0  0  0  0  0  0  0  0  0  0  0
   26.3594   59.0785   -2.9338 C   0  0  0  0  0  0  0  0  0  0  0  0
   27.4624   58.0901   -3.2475 C   0  0  0  0  0  0  0  0  0  0  0  0
   29.1904   56.3135   -2.4478 C   0  0  0  0  0  0  0  0  0  0  0  0
   25.7393   59.8604   -4.0385 O   0  0  0  0  0  0  0  0  0  0  0  0
   27.9382   57.8890   -4.6581 O   0  0  0  0  0  0  0  0  0  0  0  0
   24.3924   60.7606   -1.9183 H   0  0  0  0  0  0  0  0  0  0  0  0
   26.0426   59.7347   -4.9513 H   0  0  0  0  0  0  0  0  0  0  0  0
   28.6458   57.2524   -4.8452 H   0  0  0  0  0  0  0  0  0  0  0  0
 14 15  2  0  0  0
 15 16  1  0  0  0
 15 17  1  0  0  0
 16 13  1  0  0  0
 16 18  2  0  0  0
 17 19  2  0  0  0
 17 20  1  0  0  0
 18 21  1  0  0  0
 18 29  1  0  0  0
 19 22  1  0  0  0
 19 21  1  0  0  0
 20 23  1  0  0  0
 20 24  2  0  0  0
  1 13  1  0  0  0
  1  2  1  0  0  0
  1  3  1  0  0  0
 29 30  2  0  0  0
 29 31  1  0  0  0
 22 25  2  0  0  0
 23 27  1  0  0  0
 24 25  1  0  0  0
  2  4  1  0  0  0
  3  5  1  0  0  0
  3  6  1  0  0  0
 30 32  1  0  0  0
 31 33  2  0  0  0
 25 26  1  0  0  0
  4  7  1  0  0  0
  4 39  1  0  0  0
  5 10  1  0  0  0
  6  8  1  0  0  0
  6  7  1  0  0  0
 32 37  1  0  0  0
 32 34  2  0  0  0
 33 34  1  0  0  0
 26 28  1  0  0  0
  7  9  1  0  0  0
 39 40  1  0  0  0
  8 11  1  0  0  0
 37 38  1  0  0  0
 34 35  1  0  0  0
  9 12  1  0  0  0
 35 36  1  0  0  0
 41 40  1  0  0  0
 41 42  1  0  0  0
 41 43  1  0  0  0
 42 44  1  0  0  0
 43 45  1  0  0  0
 43 46  1  0  0  0
 44 47  1  0  0  0
 44 48  1  0  0  0
 45 51  1  0  0  0
 46 49  1  0  0  0
 46 47  1  0  0  0
 47 50  1  0  0  0
 49 52  1  0  0  0
 50 53  1  0  0  0
M  END
> <minimizedAffinity>
6.67113

$$$$
Isorhamnetin-3-O-glucoside


 41 44  0  0  0  0  0  0  0  0999 V2000
   28.7826   56.0462   -1.3506 O   0  0  0  0  0  0  0  0  0  0  0  0
   29.0813   54.5866   -1.6150 C   0  0  0  0  0  0  0  0  0  0  0  0
   29.3145   53.6534   -0.4718 C   0  0  0  0  0  0  0  0  0  0  0  0
   29.1462   54.0622   -3.0344 C   0  0  0  0  0  0  0  0  0  0  0  0
   29.6132   52.1938   -0.7363 C   0  0  0  0  0  0  0  0  0  0  0  0
   29.4449   52.6027   -3.2989 C   0  0  0  0  0  0  0  0  0  0  0  0
   28.9162   54.9764   -4.2051 C   0  0  0  0  0  0  0  0  0  0  0  0
   29.6781   51.6693   -2.1556 O   0  0  0  0  0  0  0  0  0  0  0  0
   29.5098   52.0782   -4.7184 C   0  0  0  0  0  0  0  0  0  0  0  0
   28.6205   56.4169   -3.9678 O   0  0  0  0  0  0  0  0  0  0  0  0
   28.9810   54.4520   -5.6245 C   0  0  0  0  0  0  0  0  0  0  0  0
   29.2798   52.9924   -5.8889 C   0  0  0  0  0  0  0  0  0  0  0  0
   29.3446   52.4680   -7.3085 O   0  0  0  0  0  0  0  0  0  0  0  0
   28.4763   56.9914   -4.6939 H   0  0  0  0  0  0  0  0  0  0  0  0
   29.5301   51.5630   -7.4655 H   0  0  0  0  0  0  0  0  0  0  0  0
   29.8464   51.2605    0.4071 C   0  0  0  0  0  0  0  0  0  0  0  0
   29.4028   49.8492    0.3124 C   0  0  0  0  0  0  0  0  0  0  0  0
   30.5348   51.7567    1.6598 C   0  0  0  0  0  0  0  0  0  0  0  0
   29.6359   48.9158    1.4558 C   0  0  0  0  0  0  0  0  0  0  0  0
   30.7679   50.8234    2.8030 C   0  0  0  0  0  0  0  0  0  0  0  0
   30.3244   49.4121    2.7085 C   0  0  0  0  0  0  0  0  0  0  0  0
   30.5575   48.4787    3.8518 O   0  0  0  0  0  0  0  0  0  0  0  0
   30.2775   47.5865    3.7929 H   0  0  0  0  0  0  0  0  0  0  0  0
   29.1924   47.5045    1.3612 O   0  0  0  0  0  0  0  0  0  0  0  0
   29.2612   46.7870    0.0524 C   0  0  0  0  0  0  0  0  0  0  0  0
   29.2528   54.1587    0.9204 O   0  0  0  0  0  0  0  0  0  0  0  0
   28.3636   55.3114    1.2358 C   0  0  0  0  0  0  0  0  0  0  0  0
   27.5751   55.9795    0.1368 O   0  0  0  0  0  0  0  0  0  0  0  0
   28.2599   55.7965    2.6389 C   0  0  0  0  0  0  0  0  0  0  0  0
   26.6859   57.1322    0.4521 C   0  0  0  0  0  0  0  0  0  0  0  0
   29.0493   55.1208    3.7126 O   0  0  0  0  0  0  0  0  0  0  0  0
   27.3707   56.9491    2.9543 C   0  0  0  0  0  0  0  0  0  0  0  0
   26.5822   57.6173    1.8552 C   0  0  0  0  0  0  0  0  0  0  0  0
   27.2670   57.4343    4.3574 O   0  0  0  0  0  0  0  0  0  0  0  0
   25.6930   58.7699    2.1706 O   0  0  0  0  0  0  0  0  0  0  0  0
   28.9865   55.4317    4.6294 H   0  0  0  0  0  0  0  0  0  0  0  0
   26.6899   58.1844    4.5699 H   0  0  0  0  0  0  0  0  0  0  0  0
   25.1863   59.1992    1.4636 H   0  0  0  0  0  0  0  0  0  0  0  0
   25.8974   57.8004   -0.6468 C   0  0  0  0  0  0  0  0  0  0  0  0
   25.9914   57.2842   -2.0740 O   0  0  0  0  0  0  0  0  0  0  0  0
   26.5589   56.5245   -2.2786 H   0  0  0  0  0  0  0  0  0  0  0  0
  1  2  2  0  0  0
  2  3  1  0  0  0
  2  4  1  0  0  0
  3 26  1  0  0  0
  3  5  2  0  0  0
  4  6  2  0  0  0
  4  7  1  0  0  0
  5  8  1  0  0  0
  5 16  1  0  0  0
  6  9  1  0  0  0
  6  8  1  0  0  0
  7 10  1  0  0  0
  7 11  2  0  0  0
 27 26  1  0  0  0
 27 28  1  0  0  0
 27 29  1  0  0  0
 16 17  2  0  0  0
 16 18  1  0  0  0
  9 12  2  0  0  0
 10 14  1  0  0  0
 11 12  1  0  0  0
 28 30  1  0  0  0
 29 31  1  0  0  0
 29 32  1  0  0  0
 17 19  1  0  0  0
 18 20  2  0  0  0
 12 13  1  0  0  0
 30 33  1  0  0  0
 30 39  1  0  0  0
 31 36  1  0  0  0
 32 34  1  0  0  0
 32 33  1  0  0  0
 19 24  1  0  0  0
 19 21  2  0  0  0
 20 21  1  0  0  0
 13 15  1  0  0  0
 33 35  1  0  0  0
 39 40  1  0  0  0
 34 37  1  0  0  0
 24 25  1  0  0  0
 21 22  1  0  0  0
 35 38  1  0  0  0
 40 41  1  0  0  0
 22 23  1  0  0  0
M  END
> <minimizedAffinity>
-5.06573

$$$$
Isoorientin


 40 43  0  0  0  0  0  0  0  0999 V2000
   28.6076   55.5255   -1.6562 O   0  0  0  0  0  0  0  0  0  0  0  0
   29.0226   54.0775   -1.7767 C   0  0  0  0  0  0  0  0  0  0  0  0
   29.2178   53.4476   -3.1380 C   0  0  0  0  0  0  0  0  0  0  0  0
   29.2423   53.2603   -0.5478 C   0  0  0  0  0  0  0  0  0  0  0  0
   29.0045   54.2440   -4.3923 C   0  0  0  0  0  0  0  0  0  0  0  0
   29.6328   51.9996   -3.2585 C   0  0  0  0  0  0  0  0  0  0  0  0
   29.6573   51.8122   -0.6683 C   0  0  0  0  0  0  0  0  0  0  0  0
   28.5957   55.6711   -4.2970 O   0  0  0  0  0  0  0  0  0  0  0  0
   29.1997   53.6141   -5.7536 C   0  0  0  0  0  0  0  0  0  0  0  0
   29.8525   51.1823   -2.0295 O   0  0  0  0  0  0  0  0  0  0  0  0
   29.8281   51.3697   -4.6198 C   0  0  0  0  0  0  0  0  0  0  0  0
   29.6147   52.1661   -5.8741 C   0  0  0  0  0  0  0  0  0  0  0  0
   29.8099   51.5361   -7.2354 O   0  0  0  0  0  0  0  0  0  0  0  0
   28.4611   56.1729   -5.0768 H   0  0  0  0  0  0  0  0  0  0  0  0
   30.0673   50.6377   -7.3033 H   0  0  0  0  0  0  0  0  0  0  0  0
   28.9863   54.4104   -7.0078 C   0  0  0  0  0  0  0  0  0  0  0  0
   29.8385   54.1695   -8.2340 O   0  0  0  0  0  0  0  0  0  0  0  0
   27.9233   55.4503   -7.0471 C   0  0  0  0  0  0  0  0  0  0  0  0
   29.6252   54.9658   -9.4884 C   0  0  0  0  0  0  0  0  0  0  0  0
   27.0936   55.6800   -5.8428 O   0  0  0  0  0  0  0  0  0  0  0  0
   27.7100   56.2467   -8.3013 C   0  0  0  0  0  0  0  0  0  0  0  0
   28.5622   56.0057   -9.5276 C   0  0  0  0  0  0  0  0  0  0  0  0
   26.6470   57.2866   -8.3406 O   0  0  0  0  0  0  0  0  0  0  0  0
   28.3489   56.8020  -10.7819 O   0  0  0  0  0  0  0  0  0  0  0  0
   26.3971   56.3551   -5.8551 H   0  0  0  0  0  0  0  0  0  0  0  0
   26.5046   57.8043   -9.1485 H   0  0  0  0  0  0  0  0  0  0  0  0
   28.9027   56.6371  -11.5610 H   0  0  0  0  0  0  0  0  0  0  0  0
   30.4774   54.7248  -10.7145 C   0  0  0  0  0  0  0  0  0  0  0  0
   31.9337   55.0880  -10.7231 O   0  0  0  0  0  0  0  0  0  0  0  0
   32.4688   54.9281  -11.5163 H   0  0  0  0  0  0  0  0  0  0  0  0
   29.8770   50.9949    0.5607 C   0  0  0  0  0  0  0  0  0  0  0  0
   29.5910   49.5424    0.5432 C   0  0  0  0  0  0  0  0  0  0  0  0
   30.3910   51.6505    1.8215 C   0  0  0  0  0  0  0  0  0  0  0  0
   29.8107   48.7250    1.7722 C   0  0  0  0  0  0  0  0  0  0  0  0
   30.6106   50.8331    3.0504 C   0  0  0  0  0  0  0  0  0  0  0  0
   29.5247   47.2726    1.7547 O   0  0  0  0  0  0  0  0  0  0  0  0
   30.3247   49.3806    3.0330 C   0  0  0  0  0  0  0  0  0  0  0  0
   30.5443   48.5633    4.2621 O   0  0  0  0  0  0  0  0  0  0  0  0
   29.2060   46.8672    0.9723 H   0  0  0  0  0  0  0  0  0  0  0  0
   30.3636   47.6439    4.2518 H   0  0  0  0  0  0  0  0  0  0  0  0
  1  2  2  0  0  0
  2  3  1  0  0  0
  2  4  1  0  0  0
  3  5  2  0  0  0
  3  6  1  0  0  0
  4  7  2  0  0  0
  5  8  1  0  0  0
  5  9  1  0  0  0
  6 10  1  0  0  0
  6 11  2  0  0  0
  7 31  1  0  0  0
  7 10  1  0  0  0
  8 14  1  0  0  0
  9 12  2  0  0  0
 11 12  1  0  0  0
 31 32  2  0  0  0
 31 33  1  0  0  0
 12 13  1  0  0  0
 16  9  1  0  0  0
 16 17  1  0  0  0
 16 18  1  0  0  0
 32 34  1  0  0  0
 33 35  2  0  0  0
 13 15  1  0  0  0
 17 19  1  0  0  0
 18 20  1  0  0  0
 18 21  1  0  0  0
 34 36  1  0  0  0
 34 37  2  0  0  0
 35 37  1  0  0  0
 19 22  1  0  0  0
 19 28  1  0  0  0
 20 25  1  0  0  0
 21 23  1  0  0  0
 21 22  1  0  0  0
 36 39  1  0  0  0
 37 38  1  0  0  0
 22 24  1  0  0  0
 28 29  1  0  0  0
 23 26  1  0  0  0
 38 40  1  0  0  0
 24 27  1  0  0  0
 29 30  1  0  0  0
M  END
> <minimizedAffinity>
2.68625

$$$$
Calycosin (3′-hydroxyl-formononetin)


 23 25  0  0  0  0  0  0  0  0999 V2000
   27.8792   56.6047   -2.0580 O   0  0  0  0  0  0  0  0  0  0  0  0
   28.4602   55.2204   -1.9111 C   0  0  0  0  0  0  0  0  0  0  0  0
   28.5439   54.5745   -0.5649 C   0  0  0  0  0  0  0  0  0  0  0  0
   28.9685   54.4597   -3.1199 C   0  0  0  0  0  0  0  0  0  0  0  0
   29.1249   53.1901   -0.4180 C   0  0  0  0  0  0  0  0  0  0  0  0
   29.5495   53.0753   -2.9730 C   0  0  0  0  0  0  0  0  0  0  0  0
   28.8977   55.0828   -4.4870 C   0  0  0  0  0  0  0  0  0  0  0  0
   29.6331   52.4294   -1.6266 O   0  0  0  0  0  0  0  0  0  0  0  0
   30.0578   52.3146   -4.1817 C   0  0  0  0  0  0  0  0  0  0  0  0
   29.4060   54.3221   -5.6957 C   0  0  0  0  0  0  0  0  0  0  0  0
   29.9870   52.9377   -5.5488 C   0  0  0  0  0  0  0  0  0  0  0  0
   30.4953   52.1770   -6.7575 O   0  0  0  0  0  0  0  0  0  0  0  0
   30.8540   51.3176   -6.6534 H   0  0  0  0  0  0  0  0  0  0  0  0
   28.0485   55.3125    0.6231 C   0  0  0  0  0  0  0  0  0  0  0  0
   28.7785   55.1779    1.9215 C   0  0  0  0  0  0  0  0  0  0  0  0
   26.8412   56.1687    0.5030 C   0  0  0  0  0  0  0  0  0  0  0  0
   28.2831   55.9159    3.1094 C   0  0  0  0  0  0  0  0  0  0  0  0
   26.3458   56.9067    1.6909 C   0  0  0  0  0  0  0  0  0  0  0  0
   29.0131   55.7812    4.4078 O   0  0  0  0  0  0  0  0  0  0  0  0
   27.0759   56.7721    2.9893 C   0  0  0  0  0  0  0  0  0  0  0  0
   28.7106   56.2420    5.1654 H   0  0  0  0  0  0  0  0  0  0  0  0
   26.5805   57.5100    4.1772 O   0  0  0  0  0  0  0  0  0  0  0  0
   26.0463   56.7404    5.3430 C   0  0  0  0  0  0  0  0  0  0  0  0
  1  2  2  0  0  0
  2  3  1  0  0  0
  2  4  1  0  0  0
  3 14  1  0  0  0
  3  5  2  0  0  0
  4  6  2  0  0  0
  4  7  1  0  0  0
 14 15  2  0  0  0
 14 16  1  0  0  0
  5  8  1  0  0  0
  6  9  1  0  0  0
  6  8  1  0  0  0
  7 10  2  0  0  0
 15 17  1  0  0  0
 16 18  2  0  0  0
  9 11  2  0  0  0
 10 11  1  0  0  0
 17 19  1  0  0  0
 17 20  2  0  0  0
 18 20  1  0  0  0
 11 12  1  0  0  0
 19 21  1  0  0  0
 20 22  1  0  0  0
 12 13  1  0  0  0
 22 23  1  0  0  0
M  END
> <minimizedAffinity>
-8.32307

$$$$
Stigmasterol


 31 34  0  0  0  0  0  0  0  0999 V2000
   29.1445   54.6143   -9.6575 O   0  0  0  0  0  0  0  0  0  0  0  0
   29.1702   54.3262   -8.1847 C   0  0  0  0  0  0  0  0  0  0  0  0
   28.2789   55.1013   -7.2781 C   0  0  0  0  0  0  0  0  0  0  0  0
   30.0912   53.2606   -7.6294 C   0  0  0  0  0  0  0  0  0  0  0  0
   28.3046   54.8132   -5.8052 C   0  0  0  0  0  0  0  0  0  0  0  0
   30.1097   52.9808   -6.1609 C   0  0  0  0  0  0  0  0  0  0  0  0
   27.4134   55.5883   -4.8985 C   0  0  0  0  0  0  0  0  0  0  0  0
   29.2256   53.7476   -5.2498 C   0  0  0  0  0  0  0  0  0  0  0  0
   27.4390   55.3003   -3.4256 C   0  0  0  0  0  0  0  0  0  0  0  0
   29.2442   53.4678   -3.7813 C   0  0  0  0  0  0  0  0  0  0  0  0
   30.1466   52.6821   -4.6944 C   0  0  0  0  0  0  0  0  0  0  0  0
   28.3601   54.2347   -2.8702 C   0  0  0  0  0  0  0  0  0  0  0  0
   30.1652   52.4023   -3.2260 C   0  0  0  0  0  0  0  0  0  0  0  0
   28.3786   53.9549   -1.4018 C   0  0  0  0  0  0  0  0  0  0  0  0
   30.1837   52.1225   -1.7576 C   0  0  0  0  0  0  0  0  0  0  0  0
   29.2996   52.8893   -0.8465 C   0  0  0  0  0  0  0  0  0  0  0  0
   27.6221   54.5478   -0.2649 C   0  0  0  0  0  0  0  0  0  0  0  0
   29.1018   52.8343    0.6354 C   0  0  0  0  0  0  0  0  0  0  0  0
   30.1610   51.8621   -0.1542 C   0  0  0  0  0  0  0  0  0  0  0  0
   28.0684   53.8549    0.9998 C   0  0  0  0  0  0  0  0  0  0  0  0
   29.7200   54.1166  -10.2592 H   0  0  0  0  0  0  0  0  0  0  0  0
   29.8224   51.9086    1.5884 C   0  0  0  0  0  0  0  0  0  0  0  0
   30.4757   52.4518    2.8435 C   0  0  0  0  0  0  0  0  0  0  0  0
   29.8906   50.4510    1.2906 C   0  0  0  0  0  0  0  0  0  0  0  0
   30.0213   49.4607    2.4249 C   0  0  0  0  0  0  0  0  0  0  0  0
   30.0894   48.0030    2.1271 C   0  0  0  0  0  0  0  0  0  0  0  0
   31.2890   47.2023    2.5786 C   0  0  0  0  0  0  0  0  0  0  0  0
   32.3959   46.8564    1.6027 C   0  0  0  0  0  0  0  0  0  0  0  0
   31.3833   46.7498    3.9945 C   0  0  0  0  0  0  0  0  0  0  0  0
   28.9804   47.3510    1.3910 C   0  0  0  0  0  0  0  0  0  0  0  0
   29.1786   46.9354   -0.0254 C   0  0  0  0  0  0  0  0  0  0  0  0
  1 21  1  0  0  0
  2  1  1  0  0  0
  2  3  1  0  0  0
  2  4  1  0  0  0
  3  5  1  0  0  0
  4  6  1  0  0  0
  5  7  2  0  0  0
  5  8  1  0  0  0
  6  8  1  0  0  0
  7  9  1  0  0  0
  8 10  1  0  0  0
  8 11  1  0  0  0
 10 13  1  0  0  0
 10 12  1  0  0  0
 12  9  1  0  0  0
 12 14  1  0  0  0
 13 15  1  0  0  0
 14 16  1  0  0  0
 14 17  1  0  0  0
 15 16  1  0  0  0
 16 18  1  0  0  0
 16 19  1  0  0  0
 17 20  1  0  0  0
 18 22  1  0  0  0
 18 20  1  0  0  0
 22 24  1  0  0  0
 22 23  1  0  0  0
 24 25  2  0  0  0
 26 25  1  0  0  0
 26 27  1  0  0  0
 26 30  1  0  0  0
 27 28  1  0  0  0
 27 29  1  0  0  0
 30 31  1  0  0  0
M  END
> <minimizedAffinity>
-4.37320

$$$$
β-sitosterol


 31 34  0  0  0  0  0  0  0  0999 V2000
   28.9482   54.8583  -10.2833 O   0  0  0  0  0  0  0  0  0  0  0  0
   28.9038   54.7006   -8.7926 C   0  0  0  0  0  0  0  0  0  0  0  0
   29.7029   53.6204   -8.1536 C   0  0  0  0  0  0  0  0  0  0  0  0
   28.0567   55.6288   -7.9505 C   0  0  0  0  0  0  0  0  0  0  0  0
   29.6585   53.4627   -6.6629 C   0  0  0  0  0  0  0  0  0  0  0  0
   28.0123   55.4711   -6.4597 C   0  0  0  0  0  0  0  0  0  0  0  0
   30.4576   52.3826   -6.0240 C   0  0  0  0  0  0  0  0  0  0  0  0
   28.8114   54.3909   -5.8208 C   0  0  0  0  0  0  0  0  0  0  0  0
   30.4131   52.2249   -4.5332 C   0  0  0  0  0  0  0  0  0  0  0  0
   28.7669   54.2332   -4.3300 C   0  0  0  0  0  0  0  0  0  0  0  0
   27.9643   55.3191   -4.9787 C   0  0  0  0  0  0  0  0  0  0  0  0
   29.5661   53.1530   -3.6910 C   0  0  0  0  0  0  0  0  0  0  0  0
   27.9199   55.1614   -3.4879 C   0  0  0  0  0  0  0  0  0  0  0  0
   29.5216   52.9953   -2.2003 C   0  0  0  0  0  0  0  0  0  0  0  0
   27.8754   55.0037   -1.9971 C   0  0  0  0  0  0  0  0  0  0  0  0
   28.6745   53.9236   -1.3582 C   0  0  0  0  0  0  0  0  0  0  0  0
   30.1947   52.0322   -1.2881 C   0  0  0  0  0  0  0  0  0  0  0  0
   28.8336   53.5225    0.0730 C   0  0  0  0  0  0  0  0  0  0  0  0
   27.8799   54.7698   -0.3965 C   0  0  0  0  0  0  0  0  0  0  0  0
   29.7700   52.3566    0.1223 C   0  0  0  0  0  0  0  0  0  0  0  0
   28.4320   55.5584  -10.7125 H   0  0  0  0  0  0  0  0  0  0  0  0
   28.1635   54.1834    1.2538 C   0  0  0  0  0  0  0  0  0  0  0  0
   26.6878   53.9708    1.5196 C   0  0  0  0  0  0  0  0  0  0  0  0
   28.9606   55.0505    2.1633 C   0  0  0  0  0  0  0  0  0  0  0  0
   28.5955   56.5076    2.3177 C   0  0  0  0  0  0  0  0  0  0  0  0
   27.3312   56.8814    3.0080 C   0  0  0  0  0  0  0  0  0  0  0  0
   27.2439   56.7846    4.5124 C   0  0  0  0  0  0  0  0  0  0  0  0
   25.9423   56.4013    5.1848 C   0  0  0  0  0  0  0  0  0  0  0  0
   28.4476   57.0685    5.3402 C   0  0  0  0  0  0  0  0  0  0  0  0
   26.1705   57.3447    2.2134 C   0  0  0  0  0  0  0  0  0  0  0  0
   26.3641   57.7568    0.7966 C   0  0  0  0  0  0  0  0  0  0  0  0
  1 21  1  0  0  0
  2  1  1  0  0  0
  2  3  1  0  0  0
  2  4  1  0  0  0
  3  5  1  0  0  0
  4  6  1  0  0  0
  5  7  2  0  0  0
  5  8  1  0  0  0
  6  8  1  0  0  0
  7  9  1  0  0  0
  8 10  1  0  0  0
  8 11  1  0  0  0
 10 13  1  0  0  0
 10 12  1  0  0  0
 12  9  1  0  0  0
 12 14  1  0  0  0
 13 15  1  0  0  0
 14 16  1  0  0  0
 14 17  1  0  0  0
 15 16  1  0  0  0
 16 18  1  0  0  0
 16 19  1  0  0  0
 17 20  1  0  0  0
 18 22  1  0  0  0
 18 20  1  0  0  0
 22 24  1  0  0  0
 22 23  1  0  0  0
 24 25  1  0  0  0
 26 25  1  0  0  0
 26 27  1  0  0  0
 26 30  1  0  0  0
 27 28  1  0  0  0
 27 29  1  0  0  0
 30 31  1  0  0  0
M  END
> <minimizedAffinity>
-4.91554

$$$$
7-Oxositosterol


 32 35  0  0  0  0  0  0  0  0999 V2000
   30.7065   52.4235   -0.4662 O   0  0  0  0  0  0  0  0  0  0  0  0
   29.6993   53.5255   -0.2499 C   0  0  0  0  0  0  0  0  0  0  0  0
   29.4229   54.0543    1.1230 C   0  0  0  0  0  0  0  0  0  0  0  0
   28.9510   54.1152   -1.4177 C   0  0  0  0  0  0  0  0  0  0  0  0
   28.4156   55.1564    1.3393 C   0  0  0  0  0  0  0  0  0  0  0  0
   27.9437   55.2172   -1.2015 C   0  0  0  0  0  0  0  0  0  0  0  0
   29.2043   53.6101   -2.7945 C   0  0  0  0  0  0  0  0  0  0  0  0
   27.6674   55.7460    0.1714 C   0  0  0  0  0  0  0  0  0  0  0  0
   28.1393   55.6851    2.7122 C   0  0  0  0  0  0  0  0  0  0  0  0
   27.1954   55.8069   -2.3693 C   0  0  0  0  0  0  0  0  0  0  0  0
   28.4561   54.1997   -3.9624 C   0  0  0  0  0  0  0  0  0  0  0  0
   30.1123   52.5607   -3.3146 C   0  0  0  0  0  0  0  0  0  0  0  0
   26.6600   56.8481    0.3876 C   0  0  0  0  0  0  0  0  0  0  0  0
   26.9191   56.3357   -0.9964 C   0  0  0  0  0  0  0  0  0  0  0  0
   27.1320   56.7872    2.9284 C   0  0  0  0  0  0  0  0  0  0  0  0
   27.4487   55.3018   -3.7462 C   0  0  0  0  0  0  0  0  0  0  0  0
   28.9116   53.5052   -5.1985 C   0  0  0  0  0  0  0  0  0  0  0  0
   27.7880   54.6900   -5.2152 C   0  0  0  0  0  0  0  0  0  0  0  0
   29.9330   52.4932   -4.8052 C   0  0  0  0  0  0  0  0  0  0  0  0
   26.3837   57.3769    1.7606 C   0  0  0  0  0  0  0  0  0  0  0  0
   26.8556   57.3160    4.3014 O   0  0  0  0  0  0  0  0  0  0  0  0
   26.2053   58.0249    4.4263 H   0  0  0  0  0  0  0  0  0  0  0  0
   28.4215   53.7827   -6.5937 C   0  0  0  0  0  0  0  0  0  0  0  0
   27.2109   53.0128   -7.0812 C   0  0  0  0  0  0  0  0  0  0  0  0
   29.1246   54.7820   -7.4336 C   0  0  0  0  0  0  0  0  0  0  0  0
   28.3287   55.7119   -8.3085 C   0  0  0  0  0  0  0  0  0  0  0  0
   28.6701   55.8396   -9.7457 C   0  0  0  0  0  0  0  0  0  0  0  0
   28.2829   57.1285  -10.4257 C   0  0  0  0  0  0  0  0  0  0  0  0
   29.3364   58.1577  -10.7817 C   0  0  0  0  0  0  0  0  0  0  0  0
   26.8536   57.3995  -10.7537 C   0  0  0  0  0  0  0  0  0  0  0  0
   29.3588   54.7670  -10.5016 C   0  0  0  0  0  0  0  0  0  0  0  0
   30.8183   54.8894  -10.7820 C   0  0  0  0  0  0  0  0  0  0  0  0
  1  2  2  0  0  0
  2  3  1  0  0  0
  2  4  1  0  0  0
  3  5  2  0  0  0
  4  6  1  0  0  0
  4  7  1  0  0  0
  5  8  1  0  0  0
  5  9  1  0  0  0
  6 10  1  0  0  0
  6  8  1  0  0  0
  7 11  1  0  0  0
  7 12  1  0  0  0
  8 13  1  0  0  0
  8 14  1  0  0  0
  9 15  1  0  0  0
 10 16  1  0  0  0
 11 17  1  0  0  0
 11 18  1  0  0  0
 11 16  1  0  0  0
 12 19  1  0  0  0
 13 20  1  0  0  0
 15 21  1  0  0  0
 15 20  1  0  0  0
 17 23  1  0  0  0
 17 19  1  0  0  0
 21 22  1  0  0  0
 23 25  1  0  0  0
 23 24  1  0  0  0
 25 26  1  0  0  0
 26 27  1  0  0  0
 27 28  1  0  0  0
 27 31  1  0  0  0
 28 29  1  0  0  0
 28 30  1  0  0  0
 31 32  1  0  0  0
M  END
> <minimizedAffinity>
-5.16290

$$$$
Palmitic acid


 19 18  0  0  0  0  0  0  0  0999 V2000
   29.9531   52.5559   -1.4399 C   0  0  0  0  0  0  0  0  0  0  0  0
   29.6413   52.1009   -0.0350 C   0  0  0  0  0  0  0  0  0  0  0  0
   29.6838   53.0796    1.0975 C   0  0  0  0  0  0  0  0  0  0  0  0
   28.4590   53.8913    1.4421 C   0  0  0  0  0  0  0  0  0  0  0  0
   28.5074   55.3866    1.3782 C   0  0  0  0  0  0  0  0  0  0  0  0
   27.2328   56.1780    1.2137 C   0  0  0  0  0  0  0  0  0  0  0  0
   26.1731   58.2840    2.2557 O   0  0  0  0  0  0  0  0  0  0  0  0
   26.6316   56.8849    2.3890 C   0  0  0  0  0  0  0  0  0  0  0  0
   26.4924   56.1924    3.6862 O   0  0  0  0  0  0  0  0  0  0  0  0
   26.7810   55.3057    3.7773 H   0  0  0  0  0  0  0  0  0  0  0  0
   28.9268   53.3070   -2.2304 C   0  0  0  0  0  0  0  0  0  0  0  0
   28.9241   54.8163   -2.2253 C   0  0  0  0  0  0  0  0  0  0  0  0
   27.9541   55.5678   -3.0837 C   0  0  0  0  0  0  0  0  0  0  0  0
   28.2948   55.8710   -4.5224 C   0  0  0  0  0  0  0  0  0  0  0  0
   27.5477   55.1935   -5.6292 C   0  0  0  0  0  0  0  0  0  0  0  0
   28.1887   54.0592   -6.3908 C   0  0  0  0  0  0  0  0  0  0  0  0
   29.6793   53.9865   -6.5148 C   0  0  0  0  0  0  0  0  0  0  0  0
   30.4698   53.0739   -5.6092 C   0  0  0  0  0  0  0  0  0  0  0  0
   30.1054   51.6255   -5.5003 C   0  0  0  0  0  0  0  0  0  0  0  0
  7  8  2  0  0  0
  8  9  1  0  0  0
  8  6  1  0  0  0
  9 10  1  0  0  0
  6  5  1  0  0  0
  5  4  1  0  0  0
  4  3  1  0  0  0
  3  2  1  0  0  0
  2  1  1  0  0  0
  1 11  1  0  0  0
 11 12  1  0  0  0
 12 13  1  0  0  0
 13 14  1  0  0  0
 14 15  1  0  0  0
 15 16  1  0  0  0
 16 17  1  0  0  0
 17 18  1  0  0  0
 18 19  1  0  0  0
M  END
> <minimizedAffinity>
-5.90222

$$$$
Tetradecanoic acid, methyl ester


 17 16  0  0  0  0  0  0  0  0999 V2000
   28.7183   55.8017   -1.4580 C   0  0  0  0  0  0  0  0  0  0  0  0
   28.8862   55.7232   -2.9447 C   0  0  0  0  0  0  0  0  0  0  0  0
   27.6875   55.7578   -3.8622 C   0  0  0  0  0  0  0  0  0  0  0  0
   27.8385   55.5148   -5.3330 C   0  0  0  0  0  0  0  0  0  0  0  0
   27.8286   54.1118   -5.8909 C   0  0  0  0  0  0  0  0  0  0  0  0
   29.1283   52.0026   -6.6065 O   0  0  0  0  0  0  0  0  0  0  0  0
   29.0919   53.4691   -6.3766 C   0  0  0  0  0  0  0  0  0  0  0  0
   30.3077   54.2689   -6.6326 O   0  0  0  0  0  0  0  0  0  0  0  0
   31.4990   54.1136   -5.7520 C   0  0  0  0  0  0  0  0  0  0  0  0
   27.5006   55.2157   -0.7844 C   0  0  0  0  0  0  0  0  0  0  0  0
   27.5846   54.6560    0.6029 C   0  0  0  0  0  0  0  0  0  0  0  0
   28.8498   54.7891    1.4162 C   0  0  0  0  0  0  0  0  0  0  0  0
   29.6484   53.5801    1.7980 C   0  0  0  0  0  0  0  0  0  0  0  0
   29.6702   52.3559    0.9143 C   0  0  0  0  0  0  0  0  0  0  0  0
   30.3155   52.3954   -0.4372 C   0  0  0  0  0  0  0  0  0  0  0  0
   29.4865   52.2863   -1.6945 C   0  0  0  0  0  0  0  0  0  0  0  0
   30.1384   52.1060   -3.0314 C   0  0  0  0  0  0  0  0  0  0  0  0
  6  7  2  0  0  0
  7  8  1  0  0  0
  7  5  1  0  0  0
  8  9  1  0  0  0
  5  4  1  0  0  0
  4  3  1  0  0  0
  3  2  1  0  0  0
  2  1  1  0  0  0
  1 10  1  0  0  0
 10 11  1  0  0  0
 11 12  1  0  0  0
 12 13  1  0  0  0
 13 14  1  0  0  0
 14 15  1  0  0  0
 15 16  1  0  0  0
 16 17  1  0  0  0
M  END
> <minimizedAffinity>
-5.52595

$$$$
Heneicosanoic acid, methyl ester


 24 23  0  0  0  0  0  0  0  0999 V2000
   30.4382   52.0752   -3.3163 C   0  0  0  0  0  0  0  0  0  0  0  0
   29.3282   52.7660   -2.5638 C   0  0  0  0  0  0  0  0  0  0  0  0
   29.5405   53.2627   -1.1679 C   0  0  0  0  0  0  0  0  0  0  0  0
   29.6431   52.2997   -0.0115 C   0  0  0  0  0  0  0  0  0  0  0  0
   29.7128   52.7978    1.3983 C   0  0  0  0  0  0  0  0  0  0  0  0
   29.3093   54.2104    1.7403 C   0  0  0  0  0  0  0  0  0  0  0  0
   27.8849   54.6530    1.6165 C   0  0  0  0  0  0  0  0  0  0  0  0
   27.5294   56.1188    1.5948 C   0  0  0  0  0  0  0  0  0  0  0  0
   25.8946   57.4369    3.0870 O   0  0  0  0  0  0  0  0  0  0  0  0
   27.2420   56.8578    2.8643 C   0  0  0  0  0  0  0  0  0  0  0  0
   28.2770   57.0227    3.9039 O   0  0  0  0  0  0  0  0  0  0  0  0
   27.9009   56.9651    5.3424 C   0  0  0  0  0  0  0  0  0  0  0  0
   30.1420   51.2283   -4.5144 C   0  0  0  0  0  0  0  0  0  0  0  0
   30.1599   51.8185   -5.9023 C   0  0  0  0  0  0  0  0  0  0  0  0
   29.0543   52.7122   -6.3707 C   0  0  0  0  0  0  0  0  0  0  0  0
   29.0947   54.1966   -6.1055 C   0  0  0  0  0  0  0  0  0  0  0  0
   27.8803   54.9222   -5.6167 C   0  0  0  0  0  0  0  0  0  0  0  0
   28.0083   56.1239   -4.7141 C   0  0  0  0  0  0  0  0  0  0  0  0
   28.8107   56.0543   -3.4524 C   0  0  0  0  0  0  0  0  0  0  0  0
   28.2045   56.4454   -2.1277 C   0  0  0  0  0  0  0  0  0  0  0  0
   26.7293   56.6594   -1.9922 C   0  0  0  0  0  0  0  0  0  0  0  0
   26.1727   58.0211   -1.6585 C   0  0  0  0  0  0  0  0  0  0  0  0
   25.9557   59.0447   -2.7287 C   0  0  0  0  0  0  0  0  0  0  0  0
   26.9936   60.1028   -3.0089 C   0  0  0  0  0  0  0  0  0  0  0  0
  9 10  2  0  0  0
 10 11  1  0  0  0
 10  8  1  0  0  0
 11 12  1  0  0  0
  8  7  1  0  0  0
  7  6  1  0  0  0
  6  5  1  0  0  0
  5  4  1  0  0  0
  4  3  1  0  0  0
  3  2  1  0  0  0
  2  1  1  0  0  0
  1 13  1  0  0  0
 13 14  1  0  0  0
 14 15  1  0  0  0
 15 16  1  0  0  0
 16 17  1  0  0  0
 17 18  1  0  0  0
 18 19  1  0  0  0
 19 20  1  0  0  0
 20 21  1  0  0  0
 21 22  1  0  0  0
 22 23  1  0  0  0
 23 24  1  0  0  0
M  END
> <minimizedAffinity>
-5.73262

$$$$
Loliolide


 15 16  0  0  0  0  0  0  0  0999 V2000
   29.6943   54.2384   -7.3723 O   0  0  0  0  0  0  0  0  0  0  0  0
   29.3164   54.3826   -5.9257 C   0  0  0  0  0  0  0  0  0  0  0  0
   28.5069   55.4868   -5.3308 O   0  0  0  0  0  0  0  0  0  0  0  0
   29.6817   53.4416   -4.8004 C   0  0  0  0  0  0  0  0  0  0  0  0
   28.3694   55.2366   -3.8513 C   0  0  0  0  0  0  0  0  0  0  0  0
   29.0993   53.9658   -3.5217 C   0  0  0  0  0  0  0  0  0  0  0  0
   27.6774   55.9958   -2.7612 C   0  0  0  0  0  0  0  0  0  0  0  0
   27.6925   56.4632   -4.3086 C   0  0  0  0  0  0  0  0  0  0  0  0
   29.1373   53.4541   -2.1020 C   0  0  0  0  0  0  0  0  0  0  0  0
   27.7153   55.4841   -1.3415 C   0  0  0  0  0  0  0  0  0  0  0  0
   28.4453   54.2134   -1.0119 C   0  0  0  0  0  0  0  0  0  0  0  0
   29.5785   52.4291   -1.0941 C   0  0  0  0  0  0  0  0  0  0  0  0
   29.9562   52.2774   -2.5157 C   0  0  0  0  0  0  0  0  0  0  0  0
   27.0234   56.2433   -0.2513 O   0  0  0  0  0  0  0  0  0  0  0  0
   27.0484   55.9136    0.6606 H   0  0  0  0  0  0  0  0  0  0  0  0
  1  2  2  0  0  0
  2  3  1  0  0  0
  2  4  1  0  0  0
  3  5  1  0  0  0
  4  6  2  0  0  0
  5  7  1  0  0  0
  5  8  1  0  0  0
  5  6  1  0  0  0
  6  9  1  0  0  0
  7 10  1  0  0  0
  9 11  1  0  0  0
  9 12  1  0  0  0
  9 13  1  0  0  0
 10 14  1  0  0  0
 10 11  1  0  0  0
 14 15  1  0  0  0
M  END
> <minimizedAffinity>
-7.94005

$$$$
Behenic alcohol


 24 23  0  0  0  0  0  0  0  0999 V2000
   30.3104   52.8038   -4.2836 C   0  0  0  0  0  0  0  0  0  0  0  0
   29.7166   52.0218   -3.1599 C   0  0  0  0  0  0  0  0  0  0  0  0
   29.4308   52.7020   -1.8452 C   0  0  0  0  0  0  0  0  0  0  0  0
   30.3193   52.4492   -0.6731 C   0  0  0  0  0  0  0  0  0  0  0  0
   29.7703   52.5870    0.7242 C   0  0  0  0  0  0  0  0  0  0  0  0
   28.6806   53.5694    0.9972 C   0  0  0  0  0  0  0  0  0  0  0  0
   28.9803   54.8169    1.7889 C   0  0  0  0  0  0  0  0  0  0  0  0
   27.9213   55.8535    1.9649 C   0  0  0  0  0  0  0  0  0  0  0  0
   27.7803   56.5603    3.2890 C   0  0  0  0  0  0  0  0  0  0  0  0
   25.8506   55.8081    4.8511 O   0  0  0  0  0  0  0  0  0  0  0  0
   26.4223   56.7924    3.8627 C   0  0  0  0  0  0  0  0  0  0  0  0
   24.9684   55.9548    5.2266 H   0  0  0  0  0  0  0  0  0  0  0  0
   30.2847   52.2404   -5.6817 C   0  0  0  0  0  0  0  0  0  0  0  0
   29.3237   52.7892   -6.6829 C   0  0  0  0  0  0  0  0  0  0  0  0
   28.0509   53.4473   -6.2141 C   0  0  0  0  0  0  0  0  0  0  0  0
   28.0111   54.9264   -6.0202 C   0  0  0  0  0  0  0  0  0  0  0  0
   27.7656   55.4935   -4.6451 C   0  0  0  0  0  0  0  0  0  0  0  0
   28.9230   55.8980   -3.7944 C   0  0  0  0  0  0  0  0  0  0  0  0
   28.7035   56.2198   -2.3380 C   0  0  0  0  0  0  0  0  0  0  0  0
   27.3412   56.0766   -1.7460 C   0  0  0  0  0  0  0  0  0  0  0  0
   26.7010   57.2517   -1.0516 C   0  0  0  0  0  0  0  0  0  0  0  0
   25.7183   58.1001   -1.7876 C   0  0  0  0  0  0  0  0  0  0  0  0
   26.0862   59.5122   -2.1662 C   0  0  0  0  0  0  0  0  0  0  0  0
   27.0084   59.7538   -3.3144 C   0  0  0  0  0  0  0  0  0  0  0  0
 10 11  1  0  0  0
 10 12  1  0  0  0
 11  9  1  0  0  0
  9  8  1  0  0  0
  8  7  1  0  0  0
  7  6  1  0  0  0
  6  5  1  0  0  0
  5  4  1  0  0  0
  4  3  1  0  0  0
  3  2  1  0  0  0
  2  1  1  0  0  0
  1 13  1  0  0  0
 13 14  1  0  0  0
 14 15  1  0  0  0
 15 16  1  0  0  0
 16 17  1  0  0  0
 17 18  1  0  0  0
 18 19  1  0  0  0
 19 20  1  0  0  0
 20 21  1  0  0  0
 21 22  1  0  0  0
 22 23  1  0  0  0
 23 24  1  0  0  0
M  END
> <minimizedAffinity>
-5.78252

$$$$
7,11,15-trimethyl-3-methylenhexadecan-1,2-diol


 24 23  0  0  0  0  0  0  0  0999 V2000
   29.3444   52.6377    0.5363 C   0  0  0  0  0  0  0  0  0  0  0  0
   30.0713   51.7827    1.5123 C   0  0  0  0  0  0  0  0  0  0  0  0
   28.2216   53.5139    1.0092 C   0  0  0  0  0  0  0  0  0  0  0  0
   28.3597   55.0200    1.0077 C   0  0  0  0  0  0  0  0  0  0  0  0
   28.6215   55.7700    2.2810 C   0  0  0  0  0  0  0  0  0  0  0  0
   27.5278   56.5767    2.9446 C   0  0  0  0  0  0  0  0  0  0  0  0
   26.3894   57.0776    2.1292 C   0  0  0  0  0  0  0  0  0  0  0  0
   28.8661   57.2759    5.0402 O   0  0  0  0  0  0  0  0  0  0  0  0
   27.5773   56.8775    4.4139 C   0  0  0  0  0  0  0  0  0  0  0  0
   28.9040   57.4715    5.9895 H   0  0  0  0  0  0  0  0  0  0  0  0
   26.3638   56.7854    5.2563 C   0  0  0  0  0  0  0  0  0  0  0  0
   25.6132   55.4990    5.3429 O   0  0  0  0  0  0  0  0  0  0  0  0
   24.8177   55.4378    5.8948 H   0  0  0  0  0  0  0  0  0  0  0  0
   29.7471   52.6122   -0.9211 C   0  0  0  0  0  0  0  0  0  0  0  0
   28.8188   53.1208   -1.9850 C   0  0  0  0  0  0  0  0  0  0  0  0
   29.2539   54.2127   -2.9367 C   0  0  0  0  0  0  0  0  0  0  0  0
   28.2973   55.2868   -3.3646 C   0  0  0  0  0  0  0  0  0  0  0  0
   27.4519   55.9668   -2.3474 C   0  0  0  0  0  0  0  0  0  0  0  0
   28.1811   55.6876   -4.8183 C   0  0  0  0  0  0  0  0  0  0  0  0
   27.8452   54.6729   -5.8718 C   0  0  0  0  0  0  0  0  0  0  0  0
   28.9198   54.1040   -6.7711 C   0  0  0  0  0  0  0  0  0  0  0  0
   30.0789   53.3421   -6.1979 C   0  0  0  0  0  0  0  0  0  0  0  0
   29.9387   51.8874   -5.9220 C   0  0  0  0  0  0  0  0  0  0  0  0
   31.3892   54.0347   -5.8968 C   0  0  0  0  0  0  0  0  0  0  0  0
  8  9  1  0  0  0
  8 10  1  0  0  0
  9  6  1  0  0  0
  9 11  1  0  0  0
  6  7  2  0  0  0
  6  5  1  0  0  0
 11 12  1  0  0  0
  5  4  1  0  0  0
 12 13  1  0  0  0
  4  3  1  0  0  0
  3  1  1  0  0  0
  1 14  1  0  0  0
  1  2  1  0  0  0
 14 15  1  0  0  0
 15 16  1  0  0  0
 16 17  1  0  0  0
 17 19  1  0  0  0
 17 18  1  0  0  0
 19 20  1  0  0  0
 20 21  1  0  0  0
 21 22  1  0  0  0
 22 23  1  0  0  0
 22 24  1  0  0  0
M  END
> <minimizedAffinity>
-6.94352

$$$$
D-Erythro-pentose,2-deoxy


 12 11  0  0  0  0  0  0  0  0999 V2000
   28.2769   54.6211   -5.4462 C   0  0  0  0  0  0  0  0  0  0  0  0
   27.1881   55.6302   -5.7593 O   0  0  0  0  0  0  0  0  0  0  0  0
   26.5741   55.4693   -6.4928 H   0  0  0  0  0  0  0  0  0  0  0  0
   28.4128   53.3775   -6.2596 C   0  0  0  0  0  0  0  0  0  0  0  0
   27.2218   52.8319   -6.9766 O   0  0  0  0  0  0  0  0  0  0  0  0
   26.3669   53.2855   -6.9118 H   0  0  0  0  0  0  0  0  0  0  0  0
   29.7520   52.6972   -6.3404 C   0  0  0  0  0  0  0  0  0  0  0  0
   29.8445   51.2368   -6.0481 O   0  0  0  0  0  0  0  0  0  0  0  0
   29.0472   50.7385   -5.8096 H   0  0  0  0  0  0  0  0  0  0  0  0
   29.2334   54.8626   -4.3106 C   0  0  0  0  0  0  0  0  0  0  0  0
   29.3542   52.9017   -2.6321 O   0  0  0  0  0  0  0  0  0  0  0  0
   28.9191   54.3030   -2.9635 C   0  0  0  0  0  0  0  0  0  0  0  0
 11 12  2  0  0  0
 12 10  1  0  0  0
 10  1  1  0  0  0
  1  2  1  0  0  0
  1  4  1  0  0  0
  2  3  1  0  0  0
  4  5  1  0  0  0
  4  7  1  0  0  0
  5  6  1  0  0  0
  7  8  1  0  0  0
  8  9  1  0  0  0
M  END
> <minimizedAffinity>
-4.64414

$$$$
Asparagine


 14 13  0  0  0  0  0  0  0  0999 V2000
   27.8046   55.0332   -0.0807 C   0  0  0  0  0  0  0  0  0  0  0  0
   26.9268   55.4732    1.0368 N   0  0  0  0  0  0  0  0  0  0  0  0
   26.8959   54.9356    1.9031 H   0  0  0  0  0  0  0  0  0  0  0  0
   26.3558   56.3125    0.9367 H   0  0  0  0  0  0  0  0  0  0  0  0
   29.1562   56.2909   -1.9023 O   0  0  0  0  0  0  0  0  0  0  0  0
   27.8508   55.8268   -1.3607 C   0  0  0  0  0  0  0  0  0  0  0  0
   26.5970   56.1511   -2.0901 O   0  0  0  0  0  0  0  0  0  0  0  0
   25.7715   55.8617   -1.7543 H   0  0  0  0  0  0  0  0  0  0  0  0
   28.6537   53.7833    0.0708 C   0  0  0  0  0  0  0  0  0  0  0  0
   29.3142   53.4745    1.3894 C   0  0  0  0  0  0  0  0  0  0  0  0
   29.8303   52.1061    1.6613 O   0  0  0  0  0  0  0  0  0  0  0  0
   29.4540   54.5594    2.4429 N   0  0  0  0  0  0  0  0  0  0  0  0
   29.1129   55.4656    2.2645 H   0  0  0  0  0  0  0  0  0  0  0  0
   29.8857   54.3566    3.3041 H   0  0  0  0  0  0  0  0  0  0  0  0
  5  6  2  0  0  0
  6  7  1  0  0  0
  6  1  1  0  0  0
  7  8  1  0  0  0
  1  2  1  0  0  0
  1  9  1  0  0  0
  2  3  1  0  0  0
  2  4  1  0  0  0
  9 10  1  0  0  0
 10 11  2  0  0  0
 10 12  1  0  0  0
 12 13  1  0  0  0
 12 14  1  0  0  0
M  END
> <minimizedAffinity>
-4.68137

$$$$
Gallic acid


 16 16  0  0  0  0  0  0  0  0999 V2000
   28.8589   54.0419   -2.5862 C   0  0  0  0  0  0  0  0  0  0  0  0
   28.9249   54.5538   -3.9837 C   0  0  0  0  0  0  0  0  0  0  0  0
   28.0830   54.8190   -1.5426 C   0  0  0  0  0  0  0  0  0  0  0  0
   28.2217   55.8337   -4.3407 C   0  0  0  0  0  0  0  0  0  0  0  0
   27.3797   56.0989   -1.8996 C   0  0  0  0  0  0  0  0  0  0  0  0
   28.2877   56.3456   -5.7382 O   0  0  0  0  0  0  0  0  0  0  0  0
   27.4458   56.6108   -3.2970 C   0  0  0  0  0  0  0  0  0  0  0  0
   26.6038   56.8760   -0.8559 O   0  0  0  0  0  0  0  0  0  0  0  0
   26.7426   57.8906   -3.6540 O   0  0  0  0  0  0  0  0  0  0  0  0
   27.8512   57.1429   -5.9662 H   0  0  0  0  0  0  0  0  0  0  0  0
   26.5578   56.5602    0.0251 H   0  0  0  0  0  0  0  0  0  0  0  0
   26.2660   58.3617   -2.9991 H   0  0  0  0  0  0  0  0  0  0  0  0
   30.2923   52.0038   -3.2834 O   0  0  0  0  0  0  0  0  0  0  0  0
   29.5621   52.7621   -2.2292 C   0  0  0  0  0  0  0  0  0  0  0  0
   29.5434   52.2369   -0.8428 O   0  0  0  0  0  0  0  0  0  0  0  0
   29.0877   52.7046   -0.1708 H   0  0  0  0  0  0  0  0  0  0  0  0
 13 14  2  0  0  0
 14 15  1  0  0  0
 14  1  1  0  0  0
 15 16  1  0  0  0
  1  2  2  0  0  0
  1  3  1  0  0  0
  2  4  1  0  0  0
  3  5  2  0  0  0
  4  6  1  0  0  0
  4  7  2  0  0  0
  5  8  1  0  0  0
  5  7  1  0  0  0
  6 10  1  0  0  0
  7  9  1  0  0  0
  8 11  1  0  0  0
  9 12  1  0  0  0
M  END
> <minimizedAffinity>
-6.65247

$$$$
Ergosterol peroxide


 32 36  0  0  0  0  0  0  0  0999 V2000
   29.3450   53.8830   -0.5209 O   0  0  0  0  0  0  0  0  0  0  0  0
   29.1604   54.2924    0.5377 O   0  0  0  0  0  0  0  0  0  0  0  0
   29.0450   53.9639   -1.6266 C   0  0  0  0  0  0  0  0  0  0  0  0
   28.5646   55.0427    1.1925 C   0  0  0  0  0  0  0  0  0  0  0  0
   29.8243   53.4032   -0.4494 C   0  0  0  0  0  0  0  0  0  0  0  0
   28.0077   55.0835   -1.3886 C   0  0  0  0  0  0  0  0  0  0  0  0
   29.2733   53.4365   -3.0380 C   0  0  0  0  0  0  0  0  0  0  0  0
   29.5779   53.9471    0.9509 C   0  0  0  0  0  0  0  0  0  0  0  0
   27.7612   55.6274    0.0118 C   0  0  0  0  0  0  0  0  0  0  0  0
   28.3123   55.5941    2.6004 C   0  0  0  0  0  0  0  0  0  0  0  0
   27.2043   55.6682   -2.5694 C   0  0  0  0  0  0  0  0  0  0  0  0
   28.4699   54.0212   -4.2189 C   0  0  0  0  0  0  0  0  0  0  0  0
   30.2004   52.3668   -3.5850 C   0  0  0  0  0  0  0  0  0  0  0  0
   26.7239   56.7470    0.2499 C   0  0  0  0  0  0  0  0  0  0  0  0
   26.9579   56.2121   -1.1690 C   0  0  0  0  0  0  0  0  0  0  0  0
   27.2750   56.7137    2.8385 C   0  0  0  0  0  0  0  0  0  0  0  0
   27.4325   55.1408   -3.9808 C   0  0  0  0  0  0  0  0  0  0  0  0
   28.9109   53.3033   -5.4900 C   0  0  0  0  0  0  0  0  0  0  0  0
   27.7475   54.5041   -5.4879 C   0  0  0  0  0  0  0  0  0  0  0  0
   29.9781   52.2817   -5.1053 C   0  0  0  0  0  0  0  0  0  0  0  0
   26.4717   57.2983    1.6577 C   0  0  0  0  0  0  0  0  0  0  0  0
   27.0228   57.2651    4.2463 O   0  0  0  0  0  0  0  0  0  0  0  0
   26.3684   57.9682    4.3818 H   0  0  0  0  0  0  0  0  0  0  0  0
   28.3693   53.5689   -6.9076 C   0  0  0  0  0  0  0  0  0  0  0  0
   27.0232   52.9610   -7.3604 C   0  0  0  0  0  0  0  0  0  0  0  0
   29.1659   54.4354   -7.8665 C   0  0  0  0  0  0  0  0  0  0  0  0
   28.5795   54.7817   -9.2485 C   0  0  0  0  0  0  0  0  0  0  0  0
   29.3761   55.6482  -10.2075 C   0  0  0  0  0  0  0  0  0  0  0  0
   30.6771   55.1333  -10.7774 C   0  0  0  0  0  0  0  0  0  0  0  0
   28.8499   57.0446  -10.5904 C   0  0  0  0  0  0  0  0  0  0  0  0
   29.8265   58.2263  -10.7820 C   0  0  0  0  0  0  0  0  0  0  0  0
   27.3591   57.2601  -10.7807 C   0  0  0  0  0  0  0  0  0  0  0  0
  1  2  1  0  0  0
  3  1  1  0  0  0
  3  5  1  0  0  0
  3  6  1  0  0  0
  3  7  1  0  0  0
  4  2  1  0  0  0
  4  8  1  0  0  0
  4  9  1  0  0  0
  4 10  1  0  0  0
  5  8  2  0  0  0
  6 11  1  0  0  0
  6  9  1  0  0  0
  7 12  1  0  0  0
  7 13  1  0  0  0
  9 14  1  0  0  0
  9 15  1  0  0  0
 10 16  1  0  0  0
 11 17  1  0  0  0
 12 18  1  0  0  0
 12 19  1  0  0  0
 12 17  1  0  0  0
 13 20  1  0  0  0
 14 21  1  0  0  0
 16 22  1  0  0  0
 16 21  1  0  0  0
 18 24  1  0  0  0
 18 20  1  0  0  0
 22 23  1  0  0  0
 24 26  1  0  0  0
 24 25  1  0  0  0
 26 27  2  0  0  0
 27 28  1  0  0  0
 28 30  1  0  0  0
 28 29  1  0  0  0
 30 31  1  0  0  0
 30 32  1  0  0  0
M  END
> <minimizedAffinity>
-4.73883

$$$$
Triptotin F


 40 44  0  0  0  0  0  0  0  0999 V2000
   29.7029   54.1307   -8.6212 C   0  0  0  0  0  0  0  0  0  0  0  0
   29.1690   54.8117   -7.3961 C   0  0  0  0  0  0  0  0  0  0  0  0
   30.4033   52.8098   -8.5002 C   0  0  0  0  0  0  0  0  0  0  0  0
   29.0079   55.4316   -8.3480 C   0  0  0  0  0  0  0  0  0  0  0  0
   29.3357   54.1719   -6.0496 C   0  0  0  0  0  0  0  0  0  0  0  0
   30.5700   52.1700   -7.1538 C   0  0  0  0  0  0  0  0  0  0  0  0
   28.8019   54.8529   -4.8244 C   0  0  0  0  0  0  0  0  0  0  0  0
   30.0362   52.8510   -5.9284 C   0  0  0  0  0  0  0  0  0  0  0  0
   28.9687   54.2132   -3.4780 C   0  0  0  0  0  0  0  0  0  0  0  0
   28.1013   56.1737   -4.9455 C   0  0  0  0  0  0  0  0  0  0  0  0
   28.6351   55.4928   -6.1708 C   0  0  0  0  0  0  0  0  0  0  0  0
   30.2030   52.2113   -4.5821 C   0  0  0  0  0  0  0  0  0  0  0  0
   30.7368   51.5302   -5.8075 C   0  0  0  0  0  0  0  0  0  0  0  0
   28.4350   54.8942   -2.2528 C   0  0  0  0  0  0  0  0  0  0  0  0
   29.6692   52.8923   -3.3571 C   0  0  0  0  0  0  0  0  0  0  0  0
   28.8817   54.0073   -1.9949 C   0  0  0  0  0  0  0  0  0  0  0  0
   27.5676   56.8547   -3.7203 C   0  0  0  0  0  0  0  0  0  0  0  0
   28.6016   54.2543   -0.9064 C   0  0  0  0  0  0  0  0  0  0  0  0
   27.7344   56.2148   -2.3741 C   0  0  0  0  0  0  0  0  0  0  0  0
   28.0678   54.9354    0.3188 C   0  0  0  0  0  0  0  0  0  0  0  0
   27.2005   56.8958   -1.1487 C   0  0  0  0  0  0  0  0  0  0  0  0
   27.0590   57.5492   -2.4904 C   0  0  0  0  0  0  0  0  0  0  0  0
   27.3673   56.2561    0.1978 C   0  0  0  0  0  0  0  0  0  0  0  0
   26.4999   58.2167   -1.2698 C   0  0  0  0  0  0  0  0  0  0  0  0
   26.8335   56.9370    1.4230 C   0  0  0  0  0  0  0  0  0  0  0  0
   25.9661   58.8977   -0.0447 C   0  0  0  0  0  0  0  0  0  0  0  0
   26.1328   58.2580    1.3018 C   0  0  0  0  0  0  0  0  0  0  0  0
   27.0001   56.2973    2.7694 C   0  0  0  0  0  0  0  0  0  0  0  0
   25.2655   60.2187   -0.1658 O   0  0  0  0  0  0  0  0  0  0  0  0
   25.5990   58.9390    2.5271 O   0  0  0  0  0  0  0  0  0  0  0  0
   25.1613   60.6184   -1.0068 H   0  0  0  0  0  0  0  0  0  0  0  0
   25.7032   58.5394    3.3681 H   0  0  0  0  0  0  0  0  0  0  0  0
   28.1704   54.8933  -10.5755 O   0  0  0  0  0  0  0  0  0  0  0  0
   29.5360   54.7704   -9.9676 C   0  0  0  0  0  0  0  0  0  0  0  0
   30.7348   55.2876  -10.7061 O   0  0  0  0  0  0  0  0  0  0  0  0
   31.5880   55.2108  -10.3265 H   0  0  0  0  0  0  0  0  0  0  0  0
   28.2345   54.2954    1.6652 C   0  0  0  0  0  0  0  0  0  0  0  0
   27.3083   53.1960    2.0930 O   0  0  0  0  0  0  0  0  0  0  0  0
   29.3278   54.7548    2.5837 C   0  0  0  0  0  0  0  0  0  0  0  0
   27.7803   52.3489    2.0717 H   0  0  0  0  0  0  0  0  0  0  0  0
 33 34  2  0  0  0
 34 35  1  0  0  0
 35 36  1  0  0  0
  1 34  1  0  0  0
  1  2  1  0  0  0
  1  3  1  0  0  0
  1  4  1  0  0  0
  2  5  1  0  0  0
  3  6  1  0  0  0
  5  7  1  0  0  0
  5  8  1  0  0  0
  6  8  1  0  0  0
  7  9  1  0  0  0
  7 10  1  0  0  0
  7 11  1  0  0  0
  8 12  1  0  0  0
  8 13  1  0  0  0
  9 14  1  0  0  0
  9 15  1  0  0  0
  9 16  1  0  0  0
 10 17  1  0  0  0
 12 15  1  0  0  0
 14 18  2  0  0  0
 14 19  1  0  0  0
 17 19  1  0  0  0
 18 20  1  0  0  0
 19 21  1  0  0  0
 19 22  1  0  0  0
 20 23  1  0  0  0
 20 37  1  0  0  0
 21 24  1  0  0  0
 21 23  2  0  0  0
 23 25  1  0  0  0
 37 38  1  0  0  0
 37 39  1  0  0  0
 24 26  2  0  0  0
 25 27  2  0  0  0
 25 28  1  0  0  0
 38 40  1  0  0  0
 26 29  1  0  0  0
 26 27  1  0  0  0
 27 30  1  0  0  0
 29 31  1  0  0  0
 30 32  1  0  0  0
M  END
> <minimizedAffinity>
-0.69223

$$$$
Syringic acid


 16 16  0  0  0  0  0  0  0  0999 V2000
   28.5318   54.4150   -0.9401 C   0  0  0  0  0  0  0  0  0  0  0  0
   28.9641   53.7081   -2.2099 C   0  0  0  0  0  0  0  0  0  0  0  0
   27.9555   55.7818   -1.0133 C   0  0  0  0  0  0  0  0  0  0  0  0
   28.8097   54.3897   -3.5421 C   0  0  0  0  0  0  0  0  0  0  0  0
   27.8011   56.4635   -2.3456 C   0  0  0  0  0  0  0  0  0  0  0  0
   28.2334   55.7566   -3.6152 C   0  0  0  0  0  0  0  0  0  0  0  0
   28.0790   56.4383   -4.9475 O   0  0  0  0  0  0  0  0  0  0  0  0
   28.3465   56.0005   -5.7315 H   0  0  0  0  0  0  0  0  0  0  0  0
   29.7050   52.6670    0.5677 O   0  0  0  0  0  0  0  0  0  0  0  0
   28.6863   53.7333    0.3921 C   0  0  0  0  0  0  0  0  0  0  0  0
   27.8251   54.1193    1.5372 O   0  0  0  0  0  0  0  0  0  0  0  0
   27.1805   54.7913    1.4330 H   0  0  0  0  0  0  0  0  0  0  0  0
   29.2420   53.6828   -4.8118 O   0  0  0  0  0  0  0  0  0  0  0  0
   30.5485   54.0406   -5.4663 C   0  0  0  0  0  0  0  0  0  0  0  0
   27.2247   57.8304   -2.4188 O   0  0  0  0  0  0  0  0  0  0  0  0
   25.9970   58.1737   -1.6200 C   0  0  0  0  0  0  0  0  0  0  0  0
  9 10  2  0  0  0
 10 11  1  0  0  0
 10  1  1  0  0  0
 11 12  1  0  0  0
  1  2  2  0  0  0
  1  3  1  0  0  0
  2  4  1  0  0  0
  3  5  2  0  0  0
  4 13  1  0  0  0
  4  6  2  0  0  0
  5 15  1  0  0  0
  5  6  1  0  0  0
 13 14  1  0  0  0
  6  7  1  0  0  0
 15 16  1  0  0  0
  7  8  1  0  0  0
M  END
> <minimizedAffinity>
-6.46417

$$$$
Pyrogallol gallate


 27 28  0  0  0  0  0  0  0  0999 V2000
   26.1543   56.1990   -2.5370 O   0  0  0  0  0  0  0  0  0  0  0  0
   27.4877   56.1885   -1.8689 C   0  0  0  0  0  0  0  0  0  0  0  0
   27.5542   56.1909   -0.3861 C   0  0  0  0  0  0  0  0  0  0  0  0
   26.6709   57.1079    0.3996 C   0  0  0  0  0  0  0  0  0  0  0  0
   28.5075   55.2721    0.3005 C   0  0  0  0  0  0  0  0  0  0  0  0
   26.7373   57.1103    1.8825 C   0  0  0  0  0  0  0  0  0  0  0  0
   28.5740   55.2745    1.7833 C   0  0  0  0  0  0  0  0  0  0  0  0
   25.8541   58.0274    2.6683 O   0  0  0  0  0  0  0  0  0  0  0  0
   27.6907   56.1916    2.5691 C   0  0  0  0  0  0  0  0  0  0  0  0
   29.5274   54.3558    2.4699 O   0  0  0  0  0  0  0  0  0  0  0  0
   27.7572   56.1940    4.0519 O   0  0  0  0  0  0  0  0  0  0  0  0
   25.8954   58.0296    3.6044 H   0  0  0  0  0  0  0  0  0  0  0  0
   30.0749   53.7866    1.9658 H   0  0  0  0  0  0  0  0  0  0  0  0
   28.3520   55.6215    4.4951 H   0  0  0  0  0  0  0  0  0  0  0  0
   28.7390   56.1758   -2.7049 O   0  0  0  0  0  0  0  0  0  0  0  0
   29.0589   55.0001   -3.6081 C   0  0  0  0  0  0  0  0  0  0  0  0
   28.9043   55.1096   -5.1011 C   0  0  0  0  0  0  0  0  0  0  0  0
   29.5415   53.6900   -3.0198 C   0  0  0  0  0  0  0  0  0  0  0  0
   28.4306   56.3899   -5.7017 O   0  0  0  0  0  0  0  0  0  0  0  0
   29.2242   53.9339   -6.0042 C   0  0  0  0  0  0  0  0  0  0  0  0
   29.8613   52.5143   -3.9230 C   0  0  0  0  0  0  0  0  0  0  0  0
   29.0696   54.0434   -7.4972 O   0  0  0  0  0  0  0  0  0  0  0  0
   29.7068   52.6238   -5.4160 C   0  0  0  0  0  0  0  0  0  0  0  0
   30.0266   51.4482   -6.3192 O   0  0  0  0  0  0  0  0  0  0  0  0
   28.3326   56.4637   -6.6306 H   0  0  0  0  0  0  0  0  0  0  0  0
   29.2706   53.3096   -8.0441 H   0  0  0  0  0  0  0  0  0  0  0  0
   30.3247   50.6406   -5.9493 H   0  0  0  0  0  0  0  0  0  0  0  0
  1  2  2  0  0  0
  2 15  1  0  0  0
  2  3  1  0  0  0
 15 16  1  0  0  0
  3  4  2  0  0  0
  3  5  1  0  0  0
 16 17  2  0  0  0
 16 18  1  0  0  0
  4  6  1  0  0  0
  5  7  2  0  0  0
 17 19  1  0  0  0
 17 20  1  0  0  0
 18 21  2  0  0  0
  6  8  1  0  0  0
  6  9  2  0  0  0
  7 10  1  0  0  0
  7  9  1  0  0  0
 19 25  1  0  0  0
 20 22  1  0  0  0
 20 23  2  0  0  0
 21 23  1  0  0  0
  8 12  1  0  0  0
  9 11  1  0  0  0
 10 13  1  0  0  0
 22 26  1  0  0  0
 23 24  1  0  0  0
 11 14  1  0  0  0
 24 27  1  0  0  0
M  END
> <minimizedAffinity>
-8.34855

$$$$
Yohimbic acid


 28 32  0  0  0  0  0  0  0  0999 V2000
   28.8482   54.2906   -5.6372 C   0  0  0  0  0  0  0  0  0  0  0  0
   29.1402   53.9500   -6.5757 C   0  0  0  0  0  0  0  0  0  0  0  0
   29.1393   53.7737   -4.7827 C   0  0  0  0  0  0  0  0  0  0  0  0
   28.7405   54.3226   -7.4608 O   0  0  0  0  0  0  0  0  0  0  0  0
   29.7230   53.0926   -6.6597 C   0  0  0  0  0  0  0  0  0  0  0  0
   29.7222   52.9163   -4.8667 C   0  0  0  0  0  0  0  0  0  0  0  0
   28.8475   54.1143   -3.8440 C   0  0  0  0  0  0  0  0  0  0  0  0
   30.0140   52.5757   -5.8052 C   0  0  0  0  0  0  0  0  0  0  0  0
   30.0132   52.3995   -4.0122 C   0  0  0  0  0  0  0  0  0  0  0  0
   29.1386   53.5975   -2.9896 C   0  0  0  0  0  0  0  0  0  0  0  0
   29.7214   52.7399   -3.0736 N   0  0  0  0  0  0  0  0  0  0  0  0
   28.8467   53.9380   -2.0511 C   0  0  0  0  0  0  0  0  0  0  0  0
   30.0125   52.2231   -2.2190 C   0  0  0  0  0  0  0  0  0  0  0  0
   28.2765   54.7553   -1.7536 N   0  0  0  0  0  0  0  0  0  0  0  0
   29.1378   53.4211   -1.1965 C   0  0  0  0  0  0  0  0  0  0  0  0
   29.7206   52.5637   -1.2806 C   0  0  0  0  0  0  0  0  0  0  0  0
   28.2150   54.7439   -0.7152 C   0  0  0  0  0  0  0  0  0  0  0  0
   28.7474   53.9192   -0.3709 C   0  0  0  0  0  0  0  0  0  0  0  0
   27.7432   55.3775   -0.0387 C   0  0  0  0  0  0  0  0  0  0  0  0
   28.8078   53.7281    0.6499 C   0  0  0  0  0  0  0  0  0  0  0  0
   27.8036   55.1868    0.9821 C   0  0  0  0  0  0  0  0  0  0  0  0
   28.3359   54.3621    1.3265 C   0  0  0  0  0  0  0  0  0  0  0  0
   28.1025   53.6866   -7.8204 H   0  0  0  0  0  0  0  0  0  0  0  0
   27.8667   55.4228   -2.3502 H   0  0  0  0  0  0  0  0  0  0  0  0
   27.1537   54.8142   -5.9545 O   0  0  0  0  0  0  0  0  0  0  0  0
   28.1667   55.0382   -5.8791 C   0  0  0  0  0  0  0  0  0  0  0  0
   28.2336   56.0552   -6.0875 O   0  0  0  0  0  0  0  0  0  0  0  0
   29.0679   56.4817   -6.0769 H   0  0  0  0  0  0  0  0  0  0  0  0
 25 26  2  0  0  0
 26 27  1  0  0  0
 26  1  1  0  0  0
 27 28  1  0  0  0
  1  2  1  0  0  0
  1  3  1  0  0  0
  2  4  1  0  0  0
  2  5  1  0  0  0
  3  6  1  0  0  0
  3  7  1  0  0  0
  4 23  1  0  0  0
  5  8  1  0  0  0
  6  9  1  0  0  0
  6  8  1  0  0  0
  7 10  1  0  0  0
 10 12  1  0  0  0
 10 11  1  0  0  0
 11  9  1  0  0  0
 11 13  1  0  0  0
 12 14  1  0  0  0
 12 15  2  0  0  0
 13 16  1  0  0  0
 14 17  1  0  0  0
 14 24  1  0  0  0
 15 18  1  0  0  0
 15 16  1  0  0  0
 17 19  1  0  0  0
 17 18  2  0  0  0
 18 20  1  0  0  0
 19 21  2  0  0  0
 20 22  2  0  0  0
 21 22  1  0  0  0
M  END
> <minimizedAffinity>
-13.05370

$$$$
5,7-Dihydrox-4'-methoxyisoflavone


 23 25  0  0  0  0  0  0  0  0999 V2000
   27.6487   56.8433   -2.1480 O   0  0  0  0  0  0  0  0  0  0  0  0
   28.2358   55.4534   -2.1309 C   0  0  0  0  0  0  0  0  0  0  0  0
   28.6149   54.7548   -3.4223 C   0  0  0  0  0  0  0  0  0  0  0  0
   28.4538   54.7405   -0.8340 C   0  0  0  0  0  0  0  0  0  0  0  0
   29.2022   53.3648   -3.4052 C   0  0  0  0  0  0  0  0  0  0  0  0
   28.4077   55.4462   -4.7424 C   0  0  0  0  0  0  0  0  0  0  0  0
   29.0410   53.3505   -0.8169 C   0  0  0  0  0  0  0  0  0  0  0  0
   29.4201   52.6519   -2.1082 O   0  0  0  0  0  0  0  0  0  0  0  0
   29.5813   52.6663   -4.6966 C   0  0  0  0  0  0  0  0  0  0  0  0
   27.8311   56.8146   -4.7825 O   0  0  0  0  0  0  0  0  0  0  0  0
   28.7868   54.7476   -6.0338 C   0  0  0  0  0  0  0  0  0  0  0  0
   29.3740   53.3577   -6.0167 C   0  0  0  0  0  0  0  0  0  0  0  0
   29.7531   52.6591   -7.3081 O   0  0  0  0  0  0  0  0  0  0  0  0
   27.7022   57.2447   -5.6050 H   0  0  0  0  0  0  0  0  0  0  0  0
   30.1169   51.7959   -7.2844 H   0  0  0  0  0  0  0  0  0  0  0  0
   28.0853   55.4174    0.4344 C   0  0  0  0  0  0  0  0  0  0  0  0
   28.9376   55.2095    1.6461 C   0  0  0  0  0  0  0  0  0  0  0  0
   26.8813   56.2863    0.4786 C   0  0  0  0  0  0  0  0  0  0  0  0
   28.5690   55.8865    2.9144 C   0  0  0  0  0  0  0  0  0  0  0  0
   26.5128   56.9632    1.7468 C   0  0  0  0  0  0  0  0  0  0  0  0
   27.3651   56.7553    2.9587 C   0  0  0  0  0  0  0  0  0  0  0  0
   26.9966   57.4323    4.2269 O   0  0  0  0  0  0  0  0  0  0  0  0
   26.2806   56.6559    5.2864 C   0  0  0  0  0  0  0  0  0  0  0  0
  1  2  2  0  0  0
  2  3  1  0  0  0
  2  4  1  0  0  0
  3  5  2  0  0  0
  3  6  1  0  0  0
  4 16  1  0  0  0
  4  7  2  0  0  0
  5  8  1  0  0  0
  5  9  1  0  0  0
  6 10  1  0  0  0
  6 11  2  0  0  0
 16 17  2  0  0  0
 16 18  1  0  0  0
  7  8  1  0  0  0
  9 12  2  0  0  0
 10 14  1  0  0  0
 11 12  1  0  0  0
 17 19  1  0  0  0
 18 20  2  0  0  0
 12 13  1  0  0  0
 19 21  2  0  0  0
 20 21  1  0  0  0
 13 15  1  0  0  0
 21 22  1  0  0  0
 22 23  1  0  0  0
M  END
> <minimizedAffinity>
-8.52909

$$$$
Exifone


 26 27  0  0  0  0  0  0  0  0999 V2000
   29.4797   52.4650   -0.1908 O   0  0  0  0  0  0  0  0  0  0  0  0
   28.9475   53.7030   -0.8408 C   0  0  0  0  0  0  0  0  0  0  0  0
   28.2883   54.7656    0.0047 C   0  0  0  0  0  0  0  0  0  0  0  0
   28.6238   54.8677    1.4590 C   0  0  0  0  0  0  0  0  0  0  0  0
   27.2859   55.7355   -0.6030 C   0  0  0  0  0  0  0  0  0  0  0  0
   29.6058   53.9148    2.0459 O   0  0  0  0  0  0  0  0  0  0  0  0
   27.9646   55.9304    2.3045 C   0  0  0  0  0  0  0  0  0  0  0  0
   26.6267   56.7982    0.2426 C   0  0  0  0  0  0  0  0  0  0  0  0
   28.3002   56.0325    3.7589 O   0  0  0  0  0  0  0  0  0  0  0  0
   26.9624   56.9002    1.6969 C   0  0  0  0  0  0  0  0  0  0  0  0
   26.3031   57.9629    2.5424 O   0  0  0  0  0  0  0  0  0  0  0  0
   29.8245   53.9682    2.9555 H   0  0  0  0  0  0  0  0  0  0  0  0
   27.8940   56.6903    4.2884 H   0  0  0  0  0  0  0  0  0  0  0  0
   25.6874   58.5541    2.1558 H   0  0  0  0  0  0  0  0  0  0  0  0
   29.0792   53.8627   -2.3151 C   0  0  0  0  0  0  0  0  0  0  0  0
   29.6560   52.7424   -3.1215 C   0  0  0  0  0  0  0  0  0  0  0  0
   28.6356   55.1365   -2.9732 C   0  0  0  0  0  0  0  0  0  0  0  0
   29.7878   52.9023   -4.5959 C   0  0  0  0  0  0  0  0  0  0  0  0
   28.7674   55.2963   -4.4477 C   0  0  0  0  0  0  0  0  0  0  0  0
   30.3645   51.7819   -5.4024 O   0  0  0  0  0  0  0  0  0  0  0  0
   29.3442   54.1759   -5.2541 C   0  0  0  0  0  0  0  0  0  0  0  0
   28.3238   56.5701   -5.1058 O   0  0  0  0  0  0  0  0  0  0  0  0
   29.4759   54.3358   -6.7285 O   0  0  0  0  0  0  0  0  0  0  0  0
   30.6376   50.9919   -4.9789 H   0  0  0  0  0  0  0  0  0  0  0  0
   28.4064   56.6715   -6.0336 H   0  0  0  0  0  0  0  0  0  0  0  0
   29.8356   53.6415   -7.2448 H   0  0  0  0  0  0  0  0  0  0  0  0
  1  2  2  0  0  0
  2  3  1  0  0  0
  2 15  1  0  0  0
  3  4  2  0  0  0
  3  5  1  0  0  0
 15 16  2  0  0  0
 15 17  1  0  0  0
  4  6  1  0  0  0
  4  7  1  0  0  0
  5  8  2  0  0  0
 16 18  1  0  0  0
 17 19  2  0  0  0
  6 12  1  0  0  0
  7  9  1  0  0  0
  7 10  2  0  0  0
  8 10  1  0  0  0
 18 20  1  0  0  0
 18 21  2  0  0  0
 19 22  1  0  0  0
 19 21  1  0  0  0
  9 13  1  0  0  0
 10 11  1  0  0  0
 20 24  1  0  0  0
 21 23  1  0  0  0
 22 25  1  0  0  0
 11 14  1  0  0  0
 23 26  1  0  0  0
M  END
> <minimizedAffinity>
-9.10351

$$$$
