Hydrocoumarin
 OpenBabel02222300512D

 19 20  0  0  0  0  0  0  0  0999 V2000
    0.0000    0.0000    0.0000 O   0  0  0  0  0  0  0  0  0  0  0  0
   -1.3091   -0.7312    0.0000 C   0  0  0  0  0  0  0  0  0  0  0  0
   -2.6182    0.0235    0.0000 O   0  0  0  0  0  0  0  0  0  0  0  0
   -1.3208   -2.2172    0.0000 C   0  0  0  0  0  0  0  0  0  0  0  0
   -3.9273   -0.7076    0.0000 C   0  0  0  0  0  0  0  0  0  0  0  0
   -2.6300   -2.9484    0.0000 C   0  0  0  0  0  0  0  0  0  0  0  0
   -3.9391   -2.1936    0.0000 C   0  0  0  0  0  0  0  0  0  0  0  0
   -5.2364    0.0471    0.0000 C   0  0  0  0  0  0  0  0  0  0  0  0
   -5.2482   -2.9248    0.0000 C   0  0  0  0  0  0  0  0  0  0  0  0
   -6.5455   -0.6840    0.0000 C   0  0  0  0  0  0  0  0  0  0  0  0
   -6.5573   -2.1700    0.0000 C   0  0  0  0  0  0  0  0  0  0  0  0
   -0.4001   -2.7624    0.0000 H   0  0  0  0  0  0  0  0  0  0  0  0
   -1.3343   -3.2871    0.0000 H   0  0  0  0  0  0  0  0  0  0  0  0
   -2.6373   -4.0184    0.0000 H   0  0  0  0  0  0  0  0  0  0  0  0
   -3.5583   -3.4805    0.0000 H   0  0  0  0  0  0  0  0  0  0  0  0
   -5.2294    1.0791    0.0000 H   0  0  0  0  0  0  0  0  0  0  0  0
   -5.2552   -3.9568    0.0000 H   0  0  0  0  0  0  0  0  0  0  0  0
   -7.4335   -0.1581    0.0000 H   0  0  0  0  0  0  0  0  0  0  0  0
   -7.4529   -2.6827    0.0000 H   0  0  0  0  0  0  0  0  0  0  0  0
  1  2  2  0  0  0  0
  2  3  1  0  0  0  0
  2  4  1  0  0  0  0
  3  5  1  0  0  0  0
  4  6  1  0  0  0  0
  4 12  1  0  0  0  0
  4 13  1  0  0  0  0
  5  7  2  0  0  0  0
  5  8  1  0  0  0  0
  6  7  1  0  0  0  0
  6 14  1  0  0  0  0
  6 15  1  0  0  0  0
  7  9  1  0  0  0  0
  8 10  2  0  0  0  0
  8 16  1  0  0  0  0
  9 11  2  0  0  0  0
  9 17  1  0  0  0  0
 10 11  1  0  0  0  0
 10 18  1  0  0  0  0
 11 19  1  0  0  0  0
M  END
>  <Molecule Name>
Hydrocoumarin

$$$$
Coumarin
 OpenBabel02222300512D

 17 18  0  0  0  0  0  0  0  0999 V2000
    0.0000    0.0000    0.0000 O   0  0  0  0  0  0  0  0  0  0  0  0
   -1.3091   -0.7312    0.0000 C   0  0  0  0  0  0  0  0  0  0  0  0
   -2.6182    0.0235    0.0000 O   0  0  0  0  0  0  0  0  0  0  0  0
   -1.3208   -2.2172    0.0000 C   0  0  0  0  0  0  0  0  0  0  0  0
   -3.9273   -0.7076    0.0000 C   0  0  0  0  0  0  0  0  0  0  0  0
   -2.6300   -2.9484    0.0000 C   0  0  0  0  0  0  0  0  0  0  0  0
   -3.9391   -2.1936    0.0000 C   0  0  0  0  0  0  0  0  0  0  0  0
   -5.2364    0.0471    0.0000 C   0  0  0  0  0  0  0  0  0  0  0  0
   -5.2482   -2.9248    0.0000 C   0  0  0  0  0  0  0  0  0  0  0  0
   -6.5455   -0.6840    0.0000 C   0  0  0  0  0  0  0  0  0  0  0  0
   -6.5573   -2.1700    0.0000 C   0  0  0  0  0  0  0  0  0  0  0  0
   -0.4328   -2.7431    0.0000 H   0  0  0  0  0  0  0  0  0  0  0  0
   -2.6371   -3.9804    0.0000 H   0  0  0  0  0  0  0  0  0  0  0  0
   -5.2294    1.0791    0.0000 H   0  0  0  0  0  0  0  0  0  0  0  0
   -5.2552   -3.9568    0.0000 H   0  0  0  0  0  0  0  0  0  0  0  0
   -7.4335   -0.1581    0.0000 H   0  0  0  0  0  0  0  0  0  0  0  0
   -7.4529   -2.6827    0.0000 H   0  0  0  0  0  0  0  0  0  0  0  0
  1  2  2  0  0  0  0
  2  3  1  0  0  0  0
  2  4  1  0  0  0  0
  3  5  1  0  0  0  0
  4  6  2  0  0  0  0
  4 12  1  0  0  0  0
  5  7  2  0  0  0  0
  5  8  1  0  0  0  0
  6  7  1  0  0  0  0
  6 13  1  0  0  0  0
  7  9  1  0  0  0  0
  8 10  2  0  0  0  0
  8 14  1  0  0  0  0
  9 11  2  0  0  0  0
  9 15  1  0  0  0  0
 10 11  1  0  0  0  0
 10 16  1  0  0  0  0
 11 17  1  0  0  0  0
M  END
>  <Molecule Name>
Coumarin

$$$$
Lupeol
 OpenBabel02222300512D

 81 85  0  0  0  0  0  0  0  0999 V2000
    0.0000    0.0000    0.0000 O   0  0  0  0  0  0  0  0  0  0  0  0
    1.2882    0.7682    0.0000 C   0  0  2  0  0  0  0  0  0  0  0  0
    2.5765    0.0236    0.0000 C   0  0  0  0  0  0  0  0  0  0  0  0
    1.2764    2.2810    0.0000 C   0  0  0  0  0  0  0  0  0  0  0  0
    3.8647    0.7918    0.0000 C   0  0  1  0  0  0  0  0  0  0  0  0
    3.3211   -1.2646    0.0000 C   0  0  0  0  0  0  0  0  0  0  0  0
    1.8201   -1.2646    0.0000 C   0  0  0  0  0  0  0  0  0  0  0  0
    2.5646    3.0492    0.0000 C   0  0  0  0  0  0  0  0  0  0  0  0
    3.8529    2.3046    0.0000 C   0  0  2  0  0  0  0  0  0  0  0  0
    5.1530    0.0472    0.0000 C   0  0  0  0  0  0  0  0  0  0  0  0
    5.1412    3.0729    0.0000 C   0  0  2  0  0  0  0  0  0  0  0  0
    3.8411    3.8174    0.0000 C   0  0  0  0  0  0  0  0  0  0  0  0
    6.4412    0.8155    0.0000 C   0  0  0  0  0  0  0  0  0  0  0  0
    6.4294    2.3283    0.0000 C   0  0  1  0  0  0  0  0  0  0  0  0
    5.1293    4.5857    0.0000 C   0  0  0  0  0  0  0  0  0  0  0  0
    7.7177    3.0965    0.0000 C   0  0  1  0  0  0  0  0  0  0  0  0
    6.4176    3.8411    0.0000 C   0  0  0  0  0  0  0  0  0  0  0  0
    6.4176    5.3539    0.0000 C   0  0  0  0  0  0  0  0  0  0  0  0
    7.7059    4.6093    0.0000 C   0  0  2  0  0  0  0  0  0  0  0  0
    9.0059    2.3519    0.0000 C   0  0  0  0  0  0  0  0  0  0  0  0
    7.7059    1.6073    0.0000 C   0  0  0  0  0  0  0  0  0  0  0  0
    8.9941    5.3775    0.0000 C   0  0  2  0  0  0  0  0  0  0  0  0
   10.2942    3.1201    0.0000 C   0  0  0  0  0  0  0  0  0  0  0  0
   10.2824    4.6330    0.0000 C   0  0  1  0  0  0  0  0  0  0  0  0
    9.2896    6.8549    0.0000 C   0  0  2  0  0  0  0  0  0  0  0  0
   11.3815    5.6494    0.0000 C   0  0  0  0  0  0  0  0  0  0  0  0
   11.6415    4.0302    0.0000 C   0  0  0  0  0  0  0  0  0  0  0  0
    8.2732    7.9777    0.0000 C   0  0  0  0  0  0  0  0  0  0  0  0
   10.7670    7.0204    0.0000 C   0  0  0  0  0  0  0  0  0  0  0  0
    8.7223    9.4196    0.0000 C   0  0  0  0  0  0  0  0  0  0  0  0
    6.7958    7.6822    0.0000 C   0  0  0  0  0  0  0  0  0  0  0  0
   -0.8468    0.4731    0.0000 H   0  0  0  0  0  0  0  0  0  0  0  0
    1.2955   -0.3018    0.0000 H   0  0  0  0  0  0  0  0  0  0  0  0
    0.3439    2.8058    0.0000 H   0  0  0  0  0  0  0  0  0  0  0  0
    1.2630    3.3509    0.0000 H   0  0  0  0  0  0  0  0  0  0  0  0
    3.8720   -0.2782    0.0000 H   0  0  0  0  0  0  0  0  0  0  0  0
    2.7866   -2.1915    0.0000 H   0  0  0  0  0  0  0  0  0  0  0  0
    4.3911   -1.2641    0.0000 H   0  0  0  0  0  0  0  0  0  0  0  0
    3.8566   -2.1910    0.0000 H   0  0  0  0  0  0  0  0  0  0  0  0
    0.7501   -1.2567    0.0000 H   0  0  0  0  0  0  0  0  0  0  0  0
    2.3483   -2.1951    0.0000 H   0  0  0  0  0  0  0  0  0  0  0  0
    1.2783   -2.1873    0.0000 H   0  0  0  0  0  0  0  0  0  0  0  0
    2.5573    4.1192    0.0000 H   0  0  0  0  0  0  0  0  0  0  0  0
    3.4895    3.5871    0.0000 H   0  0  0  0  0  0  0  0  0  0  0  0
    5.1603   -1.0228    0.0000 H   0  0  0  0  0  0  0  0  0  0  0  0
    6.0852   -0.4780    0.0000 H   0  0  0  0  0  0  0  0  0  0  0  0
    4.2087    3.5977    0.0000 H   0  0  0  0  0  0  0  0  0  0  0  0
    4.7635    4.3596    0.0000 H   0  0  0  0  0  0  0  0  0  0  0  0
    2.9103    4.3452    0.0000 H   0  0  0  0  0  0  0  0  0  0  0  0
    3.8328    4.8874    0.0000 H   0  0  0  0  0  0  0  0  0  0  0  0
    7.3737    0.2907    0.0000 H   0  0  0  0  0  0  0  0  0  0  0  0
    7.3628    1.3592    0.0000 H   0  0  0  0  0  0  0  0  0  0  0  0
    4.1968    5.1105    0.0000 H   0  0  0  0  0  0  0  0  0  0  0  0
    5.1159    5.6556    0.0000 H   0  0  0  0  0  0  0  0  0  0  0  0
    7.3400    4.3833    0.0000 H   0  0  0  0  0  0  0  0  0  0  0  0
    5.4868    4.3689    0.0000 H   0  0  0  0  0  0  0  0  0  0  0  0
    6.4093    4.9111    0.0000 H   0  0  0  0  0  0  0  0  0  0  0  0
    6.4103    6.4239    0.0000 H   0  0  0  0  0  0  0  0  0  0  0  0
    7.3425    5.8918    0.0000 H   0  0  0  0  0  0  0  0  0  0  0  0
    6.7812    4.0709    0.0000 H   0  0  0  0  0  0  0  0  0  0  0  0
    9.0132    1.2819    0.0000 H   0  0  0  0  0  0  0  0  0  0  0  0
    9.9381    1.8266    0.0000 H   0  0  0  0  0  0  0  0  0  0  0  0
    6.7750    1.0797    0.0000 H   0  0  0  0  0  0  0  0  0  0  0  0
    8.6283    1.0650    0.0000 H   0  0  0  0  0  0  0  0  0  0  0  0
    7.6974    0.5373    0.0000 H   0  0  0  0  0  0  0  0  0  0  0  0
    9.0014    4.3075    0.0000 H   0  0  0  0  0  0  0  0  0  0  0  0
   11.2266    2.5953    0.0000 H   0  0  0  0  0  0  0  0  0  0  0  0
   11.2158    3.6638    0.0000 H   0  0  0  0  0  0  0  0  0  0  0  0
    8.2581    6.5704    0.0000 H   0  0  0  0  0  0  0  0  0  0  0  0
   12.4298    5.4352    0.0000 H   0  0  0  0  0  0  0  0  0  0  0  0
   12.0505    6.4844    0.0000 H   0  0  0  0  0  0  0  0  0  0  0  0
   11.7549    2.9662    0.0000 H   0  0  0  0  0  0  0  0  0  0  0  0
   12.5063    4.6604    0.0000 H   0  0  0  0  0  0  0  0  0  0  0  0
   12.6196    3.5964    0.0000 H   0  0  0  0  0  0  0  0  0  0  0  0
   11.2977    7.9495    0.0000 H   0  0  0  0  0  0  0  0  0  0  0  0
   11.8357    6.9682    0.0000 H   0  0  0  0  0  0  0  0  0  0  0  0
    9.7291    9.6465    0.0000 H   0  0  0  0  0  0  0  0  0  0  0  0
    8.0224   10.1780    0.0000 H   0  0  0  0  0  0  0  0  0  0  0  0
    6.0894    8.4859    0.0000 H   0  0  0  0  0  0  0  0  0  0  0  0
    6.4529    6.6686    0.0000 H   0  0  0  0  0  0  0  0  0  0  0  0
    5.7466    7.4723    0.0000 H   0  0  0  0  0  0  0  0  0  0  0  0
  1 32  1  0  0  0  0
  2  1  1  0  0  0  0
  2  3  1  0  0  0  0
  2  4  1  0  0  0  0
  2 33  1  6  0  0  0
  3  5  1  0  0  0  0
  3  6  1  0  0  0  0
  3  7  1  0  0  0  0
  4  8  1  0  0  0  0
  4 34  1  0  0  0  0
  4 35  1  0  0  0  0
  5  9  1  0  0  0  0
  5 10  1  0  0  0  0
  5 36  1  6  0  0  0
  6 37  1  0  0  0  0
  6 38  1  0  0  0  0
  6 39  1  0  0  0  0
  7 40  1  0  0  0  0
  7 41  1  0  0  0  0
  7 42  1  0  0  0  0
  8  9  1  0  0  0  0
  8 43  1  0  0  0  0
  8 44  1  0  0  0  0
  9 11  1  0  0  0  0
  9 12  1  1  0  0  0
 10 13  1  0  0  0  0
 10 45  1  0  0  0  0
 10 46  1  0  0  0  0
 11 14  1  0  0  0  0
 11 15  1  0  0  0  0
 11 47  1  6  0  0  0
 12 48  1  0  0  0  0
 12 49  1  0  0  0  0
 12 50  1  0  0  0  0
 13 14  1  0  0  0  0
 13 51  1  0  0  0  0
 13 52  1  0  0  0  0
 14 16  1  0  0  0  0
 14 17  1  1  0  0  0
 15 18  1  0  0  0  0
 15 53  1  0  0  0  0
 15 54  1  0  0  0  0
 16 19  1  0  0  0  0
 16 20  1  0  0  0  0
 16 21  1  6  0  0  0
 17 55  1  0  0  0  0
 17 56  1  0  0  0  0
 17 57  1  0  0  0  0
 18 58  1  0  0  0  0
 18 59  1  0  0  0  0
 19 18  1  0  0  0  0
 19 60  1  1  0  0  0
 20 23  1  0  0  0  0
 20 61  1  0  0  0  0
 20 62  1  0  0  0  0
 21 63  1  0  0  0  0
 21 64  1  0  0  0  0
 21 65  1  0  0  0  0
 22 19  1  0  0  0  0
 22 24  1  0  0  0  0
 22 25  1  0  0  0  0
 22 66  1  6  0  0  0
 23 24  1  0  0  0  0
 23 67  1  0  0  0  0
 23 68  1  0  0  0  0
 24 26  1  0  0  0  0
 24 27  1  1  0  0  0
 25 28  1  0  0  0  0
 25 29  1  0  0  0  0
 25 69  1  1  0  0  0
 26 29  1  0  0  0  0
 26 70  1  0  0  0  0
 26 71  1  0  0  0  0
 27 72  1  0  0  0  0
 27 73  1  0  0  0  0
 27 74  1  0  0  0  0
 28 30  2  0  0  0  0
 28 31  1  0  0  0  0
 29 75  1  0  0  0  0
 29 76  1  0  0  0  0
 30 77  1  0  0  0  0
 30 78  1  0  0  0  0
 31 79  1  0  0  0  0
 31 80  1  0  0  0  0
 31 81  1  0  0  0  0
M  END
>  <Molecule Name>
Lupeol

$$$$
Phytol
 OpenBabel02222300512D

 61 60  0  0  0  0  0  0  0  0999 V2000
    0.0000    0.0000    0.0000 O   0  0  0  0  0  0  0  0  0  0  0  0
    1.2902    0.7693    0.0000 C   0  0  0  0  0  0  0  0  0  0  0  0
    2.5804    0.0236    0.0000 C   0  0  0  0  0  0  0  0  0  0  0  0
    3.8706    0.7930    0.0000 C   0  0  0  0  0  0  0  0  0  0  0  0
    5.1608    0.0473    0.0000 C   0  0  0  0  0  0  0  0  0  0  0  0
    3.8588    2.3081    0.0000 C   0  0  0  0  0  0  0  0  0  0  0  0
    6.4510    0.8167    0.0000 C   0  0  0  0  0  0  0  0  0  0  0  0
    7.7412    0.0710    0.0000 C   0  0  0  0  0  0  0  0  0  0  0  0
    9.0314    0.8404    0.0000 C   0  0  1  0  0  0  0  0  0  0  0  0
   10.3217    0.0946    0.0000 C   0  0  0  0  0  0  0  0  0  0  0  0
    9.0196    2.3555    0.0000 C   0  0  0  0  0  0  0  0  0  0  0  0
   11.6119    0.8640    0.0000 C   0  0  0  0  0  0  0  0  0  0  0  0
   12.9021    0.1183    0.0000 C   0  0  0  0  0  0  0  0  0  0  0  0
   14.1923    0.8877    0.0000 C   0  0  1  0  0  0  0  0  0  0  0  0
   15.4825    0.1420    0.0000 C   0  0  0  0  0  0  0  0  0  0  0  0
   14.1805    2.4028    0.0000 C   0  0  0  0  0  0  0  0  0  0  0  0
   16.7727    0.9114    0.0000 C   0  0  0  0  0  0  0  0  0  0  0  0
   18.0629    0.1657    0.0000 C   0  0  0  0  0  0  0  0  0  0  0  0
   19.3531    0.9351    0.0000 C   0  0  0  0  0  0  0  0  0  0  0  0
   19.3413    2.4502    0.0000 C   0  0  0  0  0  0  0  0  0  0  0  0
   20.6434    0.1893    0.0000 C   0  0  0  0  0  0  0  0  0  0  0  0
   -0.8468    0.4731    0.0000 H   0  0  0  0  0  0  0  0  0  0  0  0
    1.2829    1.8393    0.0000 H   0  0  0  0  0  0  0  0  0  0  0  0
    2.2151    1.3072    0.0000 H   0  0  0  0  0  0  0  0  0  0  0  0
    2.5874   -1.0084    0.0000 H   0  0  0  0  0  0  0  0  0  0  0  0
    5.1681   -1.0227    0.0000 H   0  0  0  0  0  0  0  0  0  0  0  0
    6.0930   -0.4780    0.0000 H   0  0  0  0  0  0  0  0  0  0  0  0
    4.7813    2.8503    0.0000 H   0  0  0  0  0  0  0  0  0  0  0  0
    2.9280    2.8359    0.0000 H   0  0  0  0  0  0  0  0  0  0  0  0
    3.8505    3.3781    0.0000 H   0  0  0  0  0  0  0  0  0  0  0  0
    6.4437    1.8867    0.0000 H   0  0  0  0  0  0  0  0  0  0  0  0
    7.3759    1.3546    0.0000 H   0  0  0  0  0  0  0  0  0  0  0  0
    7.7485   -0.9990    0.0000 H   0  0  0  0  0  0  0  0  0  0  0  0
    8.6734   -0.4543    0.0000 H   0  0  0  0  0  0  0  0  0  0  0  0
    8.0989    1.3652    0.0000 H   0  0  0  0  0  0  0  0  0  0  0  0
   10.3290   -0.9754    0.0000 H   0  0  0  0  0  0  0  0  0  0  0  0
   11.2539   -0.4307    0.0000 H   0  0  0  0  0  0  0  0  0  0  0  0
    9.9421    2.8977    0.0000 H   0  0  0  0  0  0  0  0  0  0  0  0
    8.0888    2.8833    0.0000 H   0  0  0  0  0  0  0  0  0  0  0  0
    9.0113    3.4255    0.0000 H   0  0  0  0  0  0  0  0  0  0  0  0
   11.6046    1.9340    0.0000 H   0  0  0  0  0  0  0  0  0  0  0  0
   12.5368    1.4019    0.0000 H   0  0  0  0  0  0  0  0  0  0  0  0
   12.9094   -0.9517    0.0000 H   0  0  0  0  0  0  0  0  0  0  0  0
   13.8343   -0.4070    0.0000 H   0  0  0  0  0  0  0  0  0  0  0  0
   13.2598    1.4125    0.0000 H   0  0  0  0  0  0  0  0  0  0  0  0
   15.4898   -0.9280    0.0000 H   0  0  0  0  0  0  0  0  0  0  0  0
   16.4147   -0.3833    0.0000 H   0  0  0  0  0  0  0  0  0  0  0  0
   15.1030    2.9450    0.0000 H   0  0  0  0  0  0  0  0  0  0  0  0
   13.2497    2.9306    0.0000 H   0  0  0  0  0  0  0  0  0  0  0  0
   14.1722    3.4728    0.0000 H   0  0  0  0  0  0  0  0  0  0  0  0
   16.7654    1.9814    0.0000 H   0  0  0  0  0  0  0  0  0  0  0  0
   17.6976    1.4493    0.0000 H   0  0  0  0  0  0  0  0  0  0  0  0
   18.0702   -0.9043    0.0000 H   0  0  0  0  0  0  0  0  0  0  0  0
   18.9951   -0.3596    0.0000 H   0  0  0  0  0  0  0  0  0  0  0  0
   20.2778    1.4735    0.0000 H   0  0  0  0  0  0  0  0  0  0  0  0
   20.2638    2.9924    0.0000 H   0  0  0  0  0  0  0  0  0  0  0  0
   18.4105    2.9780    0.0000 H   0  0  0  0  0  0  0  0  0  0  0  0
   19.3330    3.5202    0.0000 H   0  0  0  0  0  0  0  0  0  0  0  0
   20.6429   -0.8807    0.0000 H   0  0  0  0  0  0  0  0  0  0  0  0
   21.5703    0.7238    0.0000 H   0  0  0  0  0  0  0  0  0  0  0  0
   21.5698   -0.3462    0.0000 H   0  0  0  0  0  0  0  0  0  0  0  0
  1  2  1  0  0  0  0
  1 22  1  0  0  0  0
  2  3  1  0  0  0  0
  2 23  1  0  0  0  0
  2 24  1  0  0  0  0
  3  4  2  0  0  0  0
  3 25  1  0  0  0  0
  4  5  1  0  0  0  0
  4  6  1  0  0  0  0
  5  7  1  0  0  0  0
  5 26  1  0  0  0  0
  5 27  1  0  0  0  0
  6 28  1  0  0  0  0
  6 29  1  0  0  0  0
  6 30  1  0  0  0  0
  7  8  1  0  0  0  0
  7 31  1  0  0  0  0
  7 32  1  0  0  0  0
  8  9  1  0  0  0  0
  8 33  1  0  0  0  0
  8 34  1  0  0  0  0
  9 10  1  0  0  0  0
  9 11  1  0  0  0  0
  9 35  1  1  0  0  0
 10 12  1  0  0  0  0
 10 36  1  0  0  0  0
 10 37  1  0  0  0  0
 11 38  1  0  0  0  0
 11 39  1  0  0  0  0
 11 40  1  0  0  0  0
 12 13  1  0  0  0  0
 12 41  1  0  0  0  0
 12 42  1  0  0  0  0
 13 14  1  0  0  0  0
 13 43  1  0  0  0  0
 13 44  1  0  0  0  0
 14 15  1  0  0  0  0
 14 16  1  0  0  0  0
 14 45  1  1  0  0  0
 15 17  1  0  0  0  0
 15 46  1  0  0  0  0
 15 47  1  0  0  0  0
 16 48  1  0  0  0  0
 16 49  1  0  0  0  0
 16 50  1  0  0  0  0
 17 18  1  0  0  0  0
 17 51  1  0  0  0  0
 17 52  1  0  0  0  0
 18 19  1  0  0  0  0
 18 53  1  0  0  0  0
 18 54  1  0  0  0  0
 19 20  1  0  0  0  0
 19 21  1  0  0  0  0
 19 55  1  0  0  0  0
 20 56  1  0  0  0  0
 20 57  1  0  0  0  0
 20 58  1  0  0  0  0
 21 59  1  0  0  0  0
 21 60  1  0  0  0  0
 21 61  1  0  0  0  0
M  END
>  <Molecule Name>
Phytol

$$$$
Taxifolin
 OpenBabel02222300512D

 34 36  0  0  0  0  0  0  0  0999 V2000
    0.0000    0.0000    0.0000 O   0  0  0  0  0  0  0  0  0  0  0  0
   -0.0118    1.5113    0.0000 C   0  0  0  0  0  0  0  0  0  0  0  0
   -1.3224    2.2670    0.0000 C   0  0  0  0  0  0  0  0  0  0  0  0
    1.2751    2.2670    0.0000 C   0  0  2  0  0  0  0  0  0  0  0  0
   -1.3342    3.7783    0.0000 C   0  0  0  0  0  0  0  0  0  0  0  0
   -2.6330    1.5349    0.0000 C   0  0  0  0  0  0  0  0  0  0  0  0
    2.5621    1.5349    0.0000 O   0  0  0  0  0  0  0  0  0  0  0  0
    1.2633    3.7783    0.0000 C   0  0  2  0  0  0  0  0  0  0  0  0
   -0.0472    4.5340    0.0000 O   0  0  0  0  0  0  0  0  0  0  0  0
   -2.6448    4.5340    0.0000 C   0  0  0  0  0  0  0  0  0  0  0  0
   -2.6448    0.0472    0.0000 O   0  0  0  0  0  0  0  0  0  0  0  0
   -3.9436    2.2906    0.0000 C   0  0  0  0  0  0  0  0  0  0  0  0
    2.5503    4.5340    0.0000 C   0  0  0  0  0  0  0  0  0  0  0  0
   -3.9554    3.8019    0.0000 C   0  0  0  0  0  0  0  0  0  0  0  0
    3.8373    3.8019    0.0000 C   0  0  0  0  0  0  0  0  0  0  0  0
    2.5385    6.0453    0.0000 C   0  0  0  0  0  0  0  0  0  0  0  0
   -5.2660    4.5576    0.0000 O   0  0  0  0  0  0  0  0  0  0  0  0
    5.1243    4.5576    0.0000 C   0  0  0  0  0  0  0  0  0  0  0  0
    3.8255    6.8010    0.0000 C   0  0  0  0  0  0  0  0  0  0  0  0
    6.4113    3.8255    0.0000 O   0  0  0  0  0  0  0  0  0  0  0  0
    5.1125    6.0689    0.0000 C   0  0  0  0  0  0  0  0  0  0  0  0
    6.3995    6.8246    0.0000 O   0  0  0  0  0  0  0  0  0  0  0  0
    1.2825    1.1970    0.0000 H   0  0  0  0  0  0  0  0  0  0  0  0
    2.5683    0.5649    0.0000 H   0  0  0  0  0  0  0  0  0  0  0  0
    2.1940    3.2503    0.0000 H   0  0  0  0  0  0  0  0  0  0  0  0
   -2.6378    5.5660    0.0000 H   0  0  0  0  0  0  0  0  0  0  0  0
   -3.4600   -0.4148    0.0000 H   0  0  0  0  0  0  0  0  0  0  0  0
   -4.8352    1.7709    0.0000 H   0  0  0  0  0  0  0  0  0  0  0  0
    3.8444    2.7699    0.0000 H   0  0  0  0  0  0  0  0  0  0  0  0
    1.6409    6.5545    0.0000 H   0  0  0  0  0  0  0  0  0  0  0  0
   -5.2665    5.4946    0.0000 H   0  0  0  0  0  0  0  0  0  0  0  0
    3.8184    7.8330    0.0000 H   0  0  0  0  0  0  0  0  0  0  0  0
    6.4173    2.8885    0.0000 H   0  0  0  0  0  0  0  0  0  0  0  0
    7.2144    6.3621    0.0000 H   0  0  0  0  0  0  0  0  0  0  0  0
  1  2  2  0  0  0  0
  2  3  1  0  0  0  0
  2  4  1  0  0  0  0
  3  5  2  0  0  0  0
  3  6  1  0  0  0  0
  4  7  1  0  0  0  0
  4  8  1  0  0  0  0
  4 23  1  6  0  0  0
  5  9  1  0  0  0  0
  5 10  1  0  0  0  0
  6 11  1  0  0  0  0
  6 12  2  0  0  0  0
  7 24  1  0  0  0  0
  8 13  1  0  0  0  0
  8  9  1  0  0  0  0
  8 25  1  1  0  0  0
 10 14  2  0  0  0  0
 10 26  1  0  0  0  0
 11 27  1  0  0  0  0
 12 14  1  0  0  0  0
 12 28  1  0  0  0  0
 13 15  2  0  0  0  0
 13 16  1  0  0  0  0
 14 17  1  0  0  0  0
 15 18  1  0  0  0  0
 15 29  1  0  0  0  0
 16 19  2  0  0  0  0
 16 30  1  0  0  0  0
 17 31  1  0  0  0  0
 18 20  1  0  0  0  0
 18 21  2  0  0  0  0
 19 21  1  0  0  0  0
 19 32  1  0  0  0  0
 20 33  1  0  0  0  0
 21 22  1  0  0  0  0
 22 34  1  0  0  0  0
M  END
>  <Molecule Name>
Taxifolin

$$$$
Medicarpin
 OpenBabel02222300512D

 34 37  0  0  0  0  0  0  0  0999 V2000
    0.0000    0.0000    0.0000 O   0  0  0  0  0  0  0  0  0  0  0  0
    0.4471    1.4354    0.0000 C   0  0  0  0  0  0  0  0  0  0  0  0
   -1.4707   -0.2941    0.0000 C   0  0  0  0  0  0  0  0  0  0  0  0
   -0.5647    2.5532    0.0000 C   0  0  0  0  0  0  0  0  0  0  0  0
    1.8943    1.7531    0.0000 C   0  0  0  0  0  0  0  0  0  0  0  0
   -2.4826    0.8236    0.0000 C   0  0  2  0  0  0  0  0  0  0  0  0
   -0.1176    3.9887    0.0000 C   0  0  0  0  0  0  0  0  0  0  0  0
   -2.0355    2.2590    0.0000 C   0  0  1  0  0  0  0  0  0  0  0  0
    2.3414    3.1886    0.0000 C   0  0  0  0  0  0  0  0  0  0  0  0
   -3.9887    0.8353    0.0000 C   0  0  0  0  0  0  0  0  0  0  0  0
    1.3295    4.3063    0.0000 C   0  0  0  0  0  0  0  0  0  0  0  0
   -3.2592    3.1533    0.0000 O   0  0  0  0  0  0  0  0  0  0  0  0
    3.7886    3.5063    0.0000 O   0  0  0  0  0  0  0  0  0  0  0  0
   -4.4593    2.2708    0.0000 C   0  0  0  0  0  0  0  0  0  0  0  0
   -5.0005   -0.2588    0.0000 C   0  0  0  0  0  0  0  0  0  0  0  0
   -5.9301    2.5885    0.0000 C   0  0  0  0  0  0  0  0  0  0  0  0
   -6.4713    0.0588    0.0000 C   0  0  0  0  0  0  0  0  0  0  0  0
   -6.9420    1.4942    0.0000 C   0  0  0  0  0  0  0  0  0  0  0  0
   -8.4127    1.8119    0.0000 O   0  0  0  0  0  0  0  0  0  0  0  0
   -9.4246    0.7177    0.0000 C   0  0  0  0  0  0  0  0  0  0  0  0
   -1.8061   -1.3102    0.0000 H   0  0  0  0  0  0  0  0  0  0  0  0
   -2.5175   -0.5155    0.0000 H   0  0  0  0  0  0  0  0  0  0  0  0
    2.5921    0.9927    0.0000 H   0  0  0  0  0  0  0  0  0  0  0  0
   -2.9203   -0.1528    0.0000 H   0  0  0  0  0  0  0  0  0  0  0  0
   -0.8153    4.7491    0.0000 H   0  0  0  0  0  0  0  0  0  0  0  0
   -1.8053    3.3039    0.0000 H   0  0  0  0  0  0  0  0  0  0  0  0
    1.6438    5.2893    0.0000 H   0  0  0  0  0  0  0  0  0  0  0  0
    4.4202    2.8142    0.0000 H   0  0  0  0  0  0  0  0  0  0  0  0
   -4.6897   -1.2429    0.0000 H   0  0  0  0  0  0  0  0  0  0  0  0
   -6.2409    3.5726    0.0000 H   0  0  0  0  0  0  0  0  0  0  0  0
   -7.1620   -0.7079    0.0000 H   0  0  0  0  0  0  0  0  0  0  0  0
  -10.4682    0.9541    0.0000 H   0  0  0  0  0  0  0  0  0  0  0  0
   -9.1075   -0.3042    0.0000 H   0  0  0  0  0  0  0  0  0  0  0  0
  -10.1511   -0.0679    0.0000 H   0  0  0  0  0  0  0  0  0  0  0  0
  1  2  1  0  0  0  0
  1  3  1  0  0  0  0
  2  4  2  0  0  0  0
  2  5  1  0  0  0  0
  3 21  1  0  0  0  0
  3 22  1  0  0  0  0
  4  7  1  0  0  0  0
  4  8  1  0  0  0  0
  5  9  2  0  0  0  0
  5 23  1  0  0  0  0
  6  3  1  0  0  0  0
  6 10  1  0  0  0  0
  6  8  1  0  0  0  0
  6 24  1  6  0  0  0
  7 11  2  0  0  0  0
  7 25  1  0  0  0  0
  8 12  1  0  0  0  0
  8 26  1  6  0  0  0
  9 13  1  0  0  0  0
  9 11  1  0  0  0  0
 10 14  2  0  0  0  0
 10 15  1  0  0  0  0
 11 27  1  0  0  0  0
 12 14  1  0  0  0  0
 13 28  1  0  0  0  0
 14 16  1  0  0  0  0
 15 17  2  0  0  0  0
 15 29  1  0  0  0  0
 16 18  2  0  0  0  0
 16 30  1  0  0  0  0
 17 18  1  0  0  0  0
 17 31  1  0  0  0  0
 18 19  1  0  0  0  0
 19 20  1  0  0  0  0
 20 32  1  0  0  0  0
 20 33  1  0  0  0  0
 20 34  1  0  0  0  0
M  END
>  <Molecule Name>
Medicarpin

$$$$
Quercetin 3-O-rutinoside
 OpenBabel02222300512D

 73 77  0  0  0  0  0  0  0  0999 V2000
    0.0000    0.0000    0.0000 O   0  0  0  0  0  0  0  0  0  0  0  0
   -0.0118    1.5119    0.0000 C   0  0  0  0  0  0  0  0  0  0  0  0
    1.2756    2.2797    0.0000 C   0  0  0  0  0  0  0  0  0  0  0  0
   -1.3229    2.2797    0.0000 C   0  0  0  0  0  0  0  0  0  0  0  0
    2.5632    1.5355    0.0000 O   0  0  0  0  0  0  0  0  0  0  0  0
    1.2638    3.7916    0.0000 C   0  0  0  0  0  0  0  0  0  0  0  0
   -1.3347    3.7916    0.0000 C   0  0  0  0  0  0  0  0  0  0  0  0
   -2.6340    1.5355    0.0000 C   0  0  0  0  0  0  0  0  0  0  0  0
    2.5513    0.0472    0.0000 C   0  0  2  0  0  0  0  0  0  0  0  0
   -0.0472    4.5594    0.0000 O   0  0  0  0  0  0  0  0  0  0  0  0
    2.5513    4.5594    0.0000 C   0  0  0  0  0  0  0  0  0  0  0  0
   -2.6458    4.5594    0.0000 C   0  0  0  0  0  0  0  0  0  0  0  0
   -2.6458    0.0472    0.0000 O   0  0  0  0  0  0  0  0  0  0  0  0
   -3.9452    2.3033    0.0000 C   0  0  0  0  0  0  0  0  0  0  0  0
    1.2402   -0.6850    0.0000 O   0  0  0  0  0  0  0  0  0  0  0  0
    3.8388   -0.6850    0.0000 C   0  0  2  0  0  0  0  0  0  0  0  0
    3.8388    3.8152    0.0000 C   0  0  0  0  0  0  0  0  0  0  0  0
    2.5395    6.0713    0.0000 C   0  0  0  0  0  0  0  0  0  0  0  0
   -3.9570    3.8152    0.0000 C   0  0  0  0  0  0  0  0  0  0  0  0
    1.2284   -2.1734    0.0000 C   0  0  1  0  0  0  0  0  0  0  0  0
    5.1264    0.0708    0.0000 O   0  0  0  0  0  0  0  0  0  0  0  0
    3.8270   -2.1734    0.0000 C   0  0  2  0  0  0  0  0  0  0  0  0
    5.1264    4.5830    0.0000 C   0  0  0  0  0  0  0  0  0  0  0  0
    3.8270    6.8273    0.0000 C   0  0  0  0  0  0  0  0  0  0  0  0
   -5.2681    4.5830    0.0000 O   0  0  0  0  0  0  0  0  0  0  0  0
    2.5159   -2.9057    0.0000 C   0  0  2  0  0  0  0  0  0  0  0  0
   -0.0826   -2.9057    0.0000 C   0  0  0  0  0  0  0  0  0  0  0  0
    5.1145   -2.9057    0.0000 O   0  0  0  0  0  0  0  0  0  0  0  0
    6.4139    3.8388    0.0000 O   0  0  0  0  0  0  0  0  0  0  0  0
    5.1145    6.0949    0.0000 C   0  0  0  0  0  0  0  0  0  0  0  0
    2.5041   -4.3940    0.0000 O   0  0  0  0  0  0  0  0  0  0  0  0
   -1.3938   -2.1497    0.0000 O   0  0  0  0  0  0  0  0  0  0  0  0
    6.4021    6.8509    0.0000 O   0  0  0  0  0  0  0  0  0  0  0  0
   -2.7049   -2.8821    0.0000 C   0  0  2  0  0  0  0  0  0  0  0  0
   -4.0160   -2.1261    0.0000 O   0  0  0  0  0  0  0  0  0  0  0  0
   -2.7167   -4.3704    0.0000 C   0  0  2  0  0  0  0  0  0  0  0  0
   -5.3272   -2.8585    0.0000 C   0  0  2  0  0  0  0  0  0  0  0  0
   -1.4292   -5.1027    0.0000 O   0  0  0  0  0  0  0  0  0  0  0  0
   -4.0278   -5.1027    0.0000 C   0  0  1  0  0  0  0  0  0  0  0  0
   -5.3390   -4.3468    0.0000 C   0  0  1  0  0  0  0  0  0  0  0  0
   -6.6383   -2.1025    0.0000 C   0  0  0  0  0  0  0  0  0  0  0  0
   -4.0397   -6.5910    0.0000 O   0  0  0  0  0  0  0  0  0  0  0  0
   -6.6501   -5.0791    0.0000 O   0  0  0  0  0  0  0  0  0  0  0  0
    1.6307    0.5925    0.0000 H   0  0  0  0  0  0  0  0  0  0  0  0
   -2.6388    5.5914    0.0000 H   0  0  0  0  0  0  0  0  0  0  0  0
   -3.4610   -0.4149    0.0000 H   0  0  0  0  0  0  0  0  0  0  0  0
   -4.8385    1.7866    0.0000 H   0  0  0  0  0  0  0  0  0  0  0  0
    3.8315    0.3850    0.0000 H   0  0  0  0  0  0  0  0  0  0  0  0
    3.8458    2.7832    0.0000 H   0  0  0  0  0  0  0  0  0  0  0  0
    1.6419    6.5805    0.0000 H   0  0  0  0  0  0  0  0  0  0  0  0
    0.3077   -1.6282    0.0000 H   0  0  0  0  0  0  0  0  0  0  0  0
    5.9699   -0.4081    0.0000 H   0  0  0  0  0  0  0  0  0  0  0  0
    4.7540   -1.6391    0.0000 H   0  0  0  0  0  0  0  0  0  0  0  0
    3.8199    7.8593    0.0000 H   0  0  0  0  0  0  0  0  0  0  0  0
   -5.2623    5.5200    0.0000 H   0  0  0  0  0  0  0  0  0  0  0  0
    1.5889   -3.4400    0.0000 H   0  0  0  0  0  0  0  0  0  0  0  0
   -0.0899   -3.9757    0.0000 H   0  0  0  0  0  0  0  0  0  0  0  0
   -1.0109   -3.4378    0.0000 H   0  0  0  0  0  0  0  0  0  0  0  0
    5.1208   -3.8757    0.0000 H   0  0  0  0  0  0  0  0  0  0  0  0
    6.4134    2.9018    0.0000 H   0  0  0  0  0  0  0  0  0  0  0  0
    1.6602   -4.8723    0.0000 H   0  0  0  0  0  0  0  0  0  0  0  0
    7.2170    6.3883    0.0000 H   0  0  0  0  0  0  0  0  0  0  0  0
   -2.6976   -1.8121    0.0000 H   0  0  0  0  0  0  0  0  0  0  0  0
   -1.7897   -3.8361    0.0000 H   0  0  0  0  0  0  0  0  0  0  0  0
   -5.3199   -1.7885    0.0000 H   0  0  0  0  0  0  0  0  0  0  0  0
   -1.4229   -6.0727    0.0000 H   0  0  0  0  0  0  0  0  0  0  0  0
   -3.1072   -5.6480    0.0000 H   0  0  0  0  0  0  0  0  0  0  0  0
   -6.2597   -3.8016    0.0000 H   0  0  0  0  0  0  0  0  0  0  0  0
   -6.6389   -1.0325    0.0000 H   0  0  0  0  0  0  0  0  0  0  0  0
   -7.5647   -2.6380    0.0000 H   0  0  0  0  0  0  0  0  0  0  0  0
   -7.5652   -1.5680    0.0000 H   0  0  0  0  0  0  0  0  0  0  0  0
   -4.8836   -7.0693    0.0000 H   0  0  0  0  0  0  0  0  0  0  0  0
   -7.4832   -4.5822    0.0000 H   0  0  0  0  0  0  0  0  0  0  0  0
  1  2  2  0  0  0  0
  2  3  1  0  0  0  0
  2  4  1  0  0  0  0
  3  5  1  0  0  0  0
  3  6  2  0  0  0  0
  4  7  2  0  0  0  0
  4  8  1  0  0  0  0
  6 10  1  0  0  0  0
  6 11  1  0  0  0  0
  7 12  1  0  0  0  0
  7 10  1  0  0  0  0
  8 13  1  0  0  0  0
  8 14  2  0  0  0  0
  9  5  1  0  0  0  0
  9 15  1  0  0  0  0
  9 16  1  0  0  0  0
  9 44  1  6  0  0  0
 11 17  2  0  0  0  0
 11 18  1  0  0  0  0
 12 19  2  0  0  0  0
 12 45  1  0  0  0  0
 13 46  1  0  0  0  0
 14 19  1  0  0  0  0
 14 47  1  0  0  0  0
 15 20  1  0  0  0  0
 16 21  1  0  0  0  0
 16 22  1  0  0  0  0
 16 48  1  1  0  0  0
 17 23  1  0  0  0  0
 17 49  1  0  0  0  0
 18 24  2  0  0  0  0
 18 50  1  0  0  0  0
 19 25  1  0  0  0  0
 20 26  1  0  0  0  0
 20 27  1  0  0  0  0
 20 51  1  6  0  0  0
 21 52  1  0  0  0  0
 22 28  1  0  0  0  0
 22 26  1  0  0  0  0
 22 53  1  6  0  0  0
 23 29  1  0  0  0  0
 23 30  2  0  0  0  0
 24 30  1  0  0  0  0
 24 54  1  0  0  0  0
 25 55  1  0  0  0  0
 26 31  1  0  0  0  0
 26 56  1  1  0  0  0
 27 32  1  0  0  0  0
 27 57  1  0  0  0  0
 27 58  1  0  0  0  0
 28 59  1  0  0  0  0
 29 60  1  0  0  0  0
 30 33  1  0  0  0  0
 31 61  1  0  0  0  0
 33 62  1  0  0  0  0
 34 32  1  0  0  0  0
 34 35  1  0  0  0  0
 34 36  1  0  0  0  0
 34 63  1  6  0  0  0
 35 37  1  0  0  0  0
 36 38  1  0  0  0  0
 36 39  1  0  0  0  0
 36 64  1  1  0  0  0
 37 40  1  0  0  0  0
 37 41  1  0  0  0  0
 37 65  1  1  0  0  0
 38 66  1  0  0  0  0
 39 42  1  0  0  0  0
 39 40  1  0  0  0  0
 39 67  1  1  0  0  0
 40 43  1  0  0  0  0
 40 68  1  6  0  0  0
 41 69  1  0  0  0  0
 41 70  1  0  0  0  0
 41 71  1  0  0  0  0
 42 72  1  0  0  0  0
 43 73  1  0  0  0  0
M  END
>  <Molecule Name>
Quercetin 3-O-rutinoside

$$$$
Quercetin
 OpenBabel02222300512D

 32 34  0  0  0  0  0  0  0  0999 V2000
    0.0000    0.0000    0.0000 O   0  0  0  0  0  0  0  0  0  0  0  0
   -0.0117    1.5100    0.0000 C   0  0  0  0  0  0  0  0  0  0  0  0
    1.2741    2.2769    0.0000 C   0  0  0  0  0  0  0  0  0  0  0  0
   -1.3213    2.2769    0.0000 C   0  0  0  0  0  0  0  0  0  0  0  0
    2.5600    1.5336    0.0000 O   0  0  0  0  0  0  0  0  0  0  0  0
    1.2623    3.7870    0.0000 C   0  0  0  0  0  0  0  0  0  0  0  0
   -1.3331    3.7870    0.0000 C   0  0  0  0  0  0  0  0  0  0  0  0
   -2.6308    1.5336    0.0000 C   0  0  0  0  0  0  0  0  0  0  0  0
   -0.0471    4.5420    0.0000 O   0  0  0  0  0  0  0  0  0  0  0  0
    2.5482    4.5420    0.0000 C   0  0  0  0  0  0  0  0  0  0  0  0
   -2.6426    4.5420    0.0000 C   0  0  0  0  0  0  0  0  0  0  0  0
   -2.6426    0.0471    0.0000 O   0  0  0  0  0  0  0  0  0  0  0  0
   -3.9404    2.3005    0.0000 C   0  0  0  0  0  0  0  0  0  0  0  0
    3.8342    3.8106    0.0000 C   0  0  0  0  0  0  0  0  0  0  0  0
    2.5364    6.0521    0.0000 C   0  0  0  0  0  0  0  0  0  0  0  0
   -3.9522    3.8106    0.0000 C   0  0  0  0  0  0  0  0  0  0  0  0
    5.1201    4.5656    0.0000 C   0  0  0  0  0  0  0  0  0  0  0  0
    3.8224    6.8072    0.0000 C   0  0  0  0  0  0  0  0  0  0  0  0
   -5.2617    4.5656    0.0000 O   0  0  0  0  0  0  0  0  0  0  0  0
    6.4061    3.8342    0.0000 O   0  0  0  0  0  0  0  0  0  0  0  0
    5.1083    6.0757    0.0000 C   0  0  0  0  0  0  0  0  0  0  0  0
    6.3943    6.8308    0.0000 O   0  0  0  0  0  0  0  0  0  0  0  0
    2.5595    0.5966    0.0000 H   0  0  0  0  0  0  0  0  0  0  0  0
   -2.6355    5.5740    0.0000 H   0  0  0  0  0  0  0  0  0  0  0  0
   -3.4578   -0.4149    0.0000 H   0  0  0  0  0  0  0  0  0  0  0  0
   -4.8337    1.7838    0.0000 H   0  0  0  0  0  0  0  0  0  0  0  0
    3.8413    2.7786    0.0000 H   0  0  0  0  0  0  0  0  0  0  0  0
    1.6388    6.5613    0.0000 H   0  0  0  0  0  0  0  0  0  0  0  0
    3.8153    7.8392    0.0000 H   0  0  0  0  0  0  0  0  0  0  0  0
   -5.2623    5.5026    0.0000 H   0  0  0  0  0  0  0  0  0  0  0  0
    6.4122    2.8972    0.0000 H   0  0  0  0  0  0  0  0  0  0  0  0
    7.2092    6.3683    0.0000 H   0  0  0  0  0  0  0  0  0  0  0  0
  1  2  2  0  0  0  0
  2  3  1  0  0  0  0
  2  4  1  0  0  0  0
  3  5  1  0  0  0  0
  3  6  2  0  0  0  0
  4  7  2  0  0  0  0
  4  8  1  0  0  0  0
  5 23  1  0  0  0  0
  6  9  1  0  0  0  0
  6 10  1  0  0  0  0
  7 11  1  0  0  0  0
  7  9  1  0  0  0  0
  8 12  1  0  0  0  0
  8 13  2  0  0  0  0
 10 14  2  0  0  0  0
 10 15  1  0  0  0  0
 11 16  2  0  0  0  0
 11 24  1  0  0  0  0
 12 25  1  0  0  0  0
 13 16  1  0  0  0  0
 13 26  1  0  0  0  0
 14 17  1  0  0  0  0
 14 27  1  0  0  0  0
 15 18  2  0  0  0  0
 15 28  1  0  0  0  0
 16 19  1  0  0  0  0
 17 20  1  0  0  0  0
 17 21  2  0  0  0  0
 18 21  1  0  0  0  0
 18 29  1  0  0  0  0
 19 30  1  0  0  0  0
 20 31  1  0  0  0  0
 21 22  1  0  0  0  0
 22 32  1  0  0  0  0
M  END
>  <Molecule Name>
Quercetin

$$$$
Kaempferol 3-O-rhamnoside
 OpenBabel02222300512D

 51 54  0  0  0  0  0  0  0  0999 V2000
    0.0000    0.0000    0.0000 O   0  0  0  0  0  0  0  0  0  0  0  0
   -0.0118    1.5119    0.0000 C   0  0  0  0  0  0  0  0  0  0  0  0
    1.2757    2.2797    0.0000 C   0  0  0  0  0  0  0  0  0  0  0  0
   -1.3229    2.2797    0.0000 C   0  0  0  0  0  0  0  0  0  0  0  0
    2.5632    1.5355    0.0000 O   0  0  0  0  0  0  0  0  0  0  0  0
    1.2639    3.7917    0.0000 C   0  0  0  0  0  0  0  0  0  0  0  0
   -1.3347    3.7917    0.0000 C   0  0  0  0  0  0  0  0  0  0  0  0
   -2.6341    1.5355    0.0000 C   0  0  0  0  0  0  0  0  0  0  0  0
    2.5514    0.0472    0.0000 C   0  0  3  0  0  0  0  0  0  0  0  0
   -0.0472    4.5476    0.0000 O   0  0  0  0  0  0  0  0  0  0  0  0
    2.5514    4.5476    0.0000 C   0  0  0  0  0  0  0  0  0  0  0  0
   -2.6459    4.5476    0.0000 C   0  0  0  0  0  0  0  0  0  0  0  0
   -2.6459    0.0472    0.0000 O   0  0  0  0  0  0  0  0  0  0  0  0
   -3.9452    2.3033    0.0000 C   0  0  0  0  0  0  0  0  0  0  0  0
    1.2402   -0.6851    0.0000 O   0  0  0  0  0  0  0  0  0  0  0  0
    3.8389   -0.6851    0.0000 C   0  0  1  0  0  0  0  0  0  0  0  0
    2.5396    6.0596    0.0000 C   0  0  0  0  0  0  0  0  0  0  0  0
    3.8389    3.8153    0.0000 C   0  0  0  0  0  0  0  0  0  0  0  0
   -3.9570    3.8153    0.0000 C   0  0  0  0  0  0  0  0  0  0  0  0
    1.2284   -2.1734    0.0000 C   0  0  1  0  0  0  0  0  0  0  0  0
    5.1264    0.0708    0.0000 O   0  0  0  0  0  0  0  0  0  0  0  0
    3.8271   -2.1734    0.0000 C   0  0  2  0  0  0  0  0  0  0  0  0
    3.8271    6.8274    0.0000 C   0  0  0  0  0  0  0  0  0  0  0  0
    5.1264    4.5713    0.0000 C   0  0  0  0  0  0  0  0  0  0  0  0
   -5.2682    4.5713    0.0000 O   0  0  0  0  0  0  0  0  0  0  0  0
    2.5159   -2.9176    0.0000 C   0  0  2  0  0  0  0  0  0  0  0  0
   -0.0826   -2.9176    0.0000 C   0  0  0  0  0  0  0  0  0  0  0  0
    5.1146   -2.9176    0.0000 O   0  0  0  0  0  0  0  0  0  0  0  0
    5.1146    6.0832    0.0000 C   0  0  0  0  0  0  0  0  0  0  0  0
    2.5041   -4.4059    0.0000 O   0  0  0  0  0  0  0  0  0  0  0  0
    6.4021    6.8510    0.0000 O   0  0  0  0  0  0  0  0  0  0  0  0
    1.6307    0.5924    0.0000 H   0  0  0  0  0  0  0  0  0  0  0  0
   -2.6389    5.5796    0.0000 H   0  0  0  0  0  0  0  0  0  0  0  0
   -3.4611   -0.4149    0.0000 H   0  0  0  0  0  0  0  0  0  0  0  0
   -4.8385    1.7866    0.0000 H   0  0  0  0  0  0  0  0  0  0  0  0
    3.8315    0.3849    0.0000 H   0  0  0  0  0  0  0  0  0  0  0  0
    1.6403    6.5658    0.0000 H   0  0  0  0  0  0  0  0  0  0  0  0
    3.8460    2.7833    0.0000 H   0  0  0  0  0  0  0  0  0  0  0  0
    0.3059   -1.6314    0.0000 H   0  0  0  0  0  0  0  0  0  0  0  0
    5.9700   -0.4081    0.0000 H   0  0  0  0  0  0  0  0  0  0  0  0
    4.7560   -1.6423    0.0000 H   0  0  0  0  0  0  0  0  0  0  0  0
    3.8201    7.8594    0.0000 H   0  0  0  0  0  0  0  0  0  0  0  0
    6.0240    4.0621    0.0000 H   0  0  0  0  0  0  0  0  0  0  0  0
   -5.2687    5.5083    0.0000 H   0  0  0  0  0  0  0  0  0  0  0  0
    1.5870   -3.4487    0.0000 H   0  0  0  0  0  0  0  0  0  0  0  0
   -1.0053   -2.3759    0.0000 H   0  0  0  0  0  0  0  0  0  0  0  0
   -0.0904   -3.9876    0.0000 H   0  0  0  0  0  0  0  0  0  0  0  0
   -1.0131   -3.4458    0.0000 H   0  0  0  0  0  0  0  0  0  0  0  0
    5.1141   -3.8876    0.0000 H   0  0  0  0  0  0  0  0  0  0  0  0
    1.6602   -4.8842    0.0000 H   0  0  0  0  0  0  0  0  0  0  0  0
    7.2201    6.3940    0.0000 H   0  0  0  0  0  0  0  0  0  0  0  0
  1  2  2  0  0  0  0
  2  3  1  0  0  0  0
  2  4  1  0  0  0  0
  3  5  1  0  0  0  0
  3  6  2  0  0  0  0
  4  7  2  0  0  0  0
  4  8  1  0  0  0  0
  5  9  1  0  0  0  0
  6 10  1  0  0  0  0
  6 11  1  0  0  0  0
  7 12  1  0  0  0  0
  7 10  1  0  0  0  0
  8 13  1  0  0  0  0
  8 14  2  0  0  0  0
  9 15  1  0  0  0  0
  9 16  1  0  0  0  0
  9 32  1  0  0  0  0
 11 17  2  0  0  0  0
 11 18  1  0  0  0  0
 12 19  2  0  0  0  0
 12 33  1  0  0  0  0
 13 34  1  0  0  0  0
 14 19  1  0  0  0  0
 14 35  1  0  0  0  0
 15 20  1  0  0  0  0
 16 21  1  0  0  0  0
 16 22  1  0  0  0  0
 16 36  1  6  0  0  0
 17 23  1  0  0  0  0
 17 37  1  0  0  0  0
 18 24  2  0  0  0  0
 18 38  1  0  0  0  0
 19 25  1  0  0  0  0
 20 26  1  0  0  0  0
 20 27  1  0  0  0  0
 20 39  1  6  0  0  0
 21 40  1  0  0  0  0
 22 28  1  0  0  0  0
 22 26  1  0  0  0  0
 22 41  1  6  0  0  0
 23 29  2  0  0  0  0
 23 42  1  0  0  0  0
 24 29  1  0  0  0  0
 24 43  1  0  0  0  0
 25 44  1  0  0  0  0
 26 30  1  0  0  0  0
 26 45  1  1  0  0  0
 27 46  1  0  0  0  0
 27 47  1  0  0  0  0
 27 48  1  0  0  0  0
 28 49  1  0  0  0  0
 29 31  1  0  0  0  0
 30 50  1  0  0  0  0
 31 51  1  0  0  0  0
M  END
>  <Molecule Name>
Kaempferol 3-O-rhamnoside

$$$$
Kaempferol 3-O-glucoside
 OpenBabel02222300512D

 52 55  0  0  0  0  0  0  0  0999 V2000
    0.0000    0.0000    0.0000 O   0  0  0  0  0  0  0  0  0  0  0  0
   -0.0118    1.5132    0.0000 C   0  0  0  0  0  0  0  0  0  0  0  0
    1.2768    2.2699    0.0000 C   0  0  0  0  0  0  0  0  0  0  0  0
   -1.3241    2.2699    0.0000 C   0  0  0  0  0  0  0  0  0  0  0  0
    2.5654    1.5369    0.0000 O   0  0  0  0  0  0  0  0  0  0  0  0
    1.2650    3.7831    0.0000 C   0  0  0  0  0  0  0  0  0  0  0  0
   -1.3359    3.7831    0.0000 C   0  0  0  0  0  0  0  0  0  0  0  0
   -2.6364    1.5369    0.0000 C   0  0  0  0  0  0  0  0  0  0  0  0
    2.5536    0.0472    0.0000 C   0  0  3  0  0  0  0  0  0  0  0  0
   -0.0472    4.5398    0.0000 O   0  0  0  0  0  0  0  0  0  0  0  0
    2.5536    4.5398    0.0000 C   0  0  0  0  0  0  0  0  0  0  0  0
   -2.6482    4.5398    0.0000 C   0  0  0  0  0  0  0  0  0  0  0  0
   -2.6482    0.0472    0.0000 O   0  0  0  0  0  0  0  0  0  0  0  0
   -3.9486    2.2935    0.0000 C   0  0  0  0  0  0  0  0  0  0  0  0
    1.2413   -0.6857    0.0000 O   0  0  0  0  0  0  0  0  0  0  0  0
    3.8422   -0.6857    0.0000 C   0  0  2  0  0  0  0  0  0  0  0  0
    2.5418    6.0530    0.0000 C   0  0  0  0  0  0  0  0  0  0  0  0
    3.8422    3.7950    0.0000 C   0  0  0  0  0  0  0  0  0  0  0  0
   -3.9605    3.7950    0.0000 C   0  0  0  0  0  0  0  0  0  0  0  0
    1.2295   -2.1753    0.0000 C   0  0  1  0  0  0  0  0  0  0  0  0
    5.1309    0.0709    0.0000 O   0  0  0  0  0  0  0  0  0  0  0  0
    3.8304   -2.1753    0.0000 C   0  0  2  0  0  0  0  0  0  0  0  0
    3.8304    6.8097    0.0000 C   0  0  0  0  0  0  0  0  0  0  0  0
    5.1309    4.5516    0.0000 C   0  0  0  0  0  0  0  0  0  0  0  0
   -5.2728    4.5516    0.0000 O   0  0  0  0  0  0  0  0  0  0  0  0
    2.5181   -2.9083    0.0000 C   0  0  2  0  0  0  0  0  0  0  0  0
   -0.0827   -2.9083    0.0000 C   0  0  0  0  0  0  0  0  0  0  0  0
    5.1191   -2.9083    0.0000 O   0  0  0  0  0  0  0  0  0  0  0  0
    5.1191    6.0767    0.0000 C   0  0  0  0  0  0  0  0  0  0  0  0
    2.5063   -4.3979    0.0000 O   0  0  0  0  0  0  0  0  0  0  0  0
   -1.3950   -2.1516    0.0000 O   0  0  0  0  0  0  0  0  0  0  0  0
    6.4077    6.8333    0.0000 O   0  0  0  0  0  0  0  0  0  0  0  0
    1.6329    0.5924    0.0000 H   0  0  0  0  0  0  0  0  0  0  0  0
   -2.6447    5.5718    0.0000 H   0  0  0  0  0  0  0  0  0  0  0  0
   -3.4634   -0.4149    0.0000 H   0  0  0  0  0  0  0  0  0  0  0  0
   -4.8401    1.7737    0.0000 H   0  0  0  0  0  0  0  0  0  0  0  0
    3.8348    0.3843    0.0000 H   0  0  0  0  0  0  0  0  0  0  0  0
    1.6442    6.5622    0.0000 H   0  0  0  0  0  0  0  0  0  0  0  0
    3.8457    2.7630    0.0000 H   0  0  0  0  0  0  0  0  0  0  0  0
    0.3088   -1.6301    0.0000 H   0  0  0  0  0  0  0  0  0  0  0  0
    5.9745   -0.4080    0.0000 H   0  0  0  0  0  0  0  0  0  0  0  0
    4.7574   -1.6410    0.0000 H   0  0  0  0  0  0  0  0  0  0  0  0
    3.8233    7.8417    0.0000 H   0  0  0  0  0  0  0  0  0  0  0  0
    6.0285    4.0423    0.0000 H   0  0  0  0  0  0  0  0  0  0  0  0
   -5.2734    5.4886    0.0000 H   0  0  0  0  0  0  0  0  0  0  0  0
    1.5910   -3.4426    0.0000 H   0  0  0  0  0  0  0  0  0  0  0  0
   -0.0900   -3.9783    0.0000 H   0  0  0  0  0  0  0  0  0  0  0  0
   -1.0110   -3.4404    0.0000 H   0  0  0  0  0  0  0  0  0  0  0  0
    5.1254   -3.8783    0.0000 H   0  0  0  0  0  0  0  0  0  0  0  0
    1.6624   -4.8762    0.0000 H   0  0  0  0  0  0  0  0  0  0  0  0
   -1.3955   -1.1816    0.0000 H   0  0  0  0  0  0  0  0  0  0  0  0
    7.2226    6.3708    0.0000 H   0  0  0  0  0  0  0  0  0  0  0  0
  1  2  2  0  0  0  0
  2  3  1  0  0  0  0
  2  4  1  0  0  0  0
  3  5  1  0  0  0  0
  3  6  2  0  0  0  0
  4  7  2  0  0  0  0
  4  8  1  0  0  0  0
  5  9  1  0  0  0  0
  6 10  1  0  0  0  0
  6 11  1  0  0  0  0
  7 12  1  0  0  0  0
  7 10  1  0  0  0  0
  8 13  1  0  0  0  0
  8 14  2  0  0  0  0
  9 15  1  0  0  0  0
  9 16  1  0  0  0  0
  9 33  1  0  0  0  0
 11 17  2  0  0  0  0
 11 18  1  0  0  0  0
 12 19  2  0  0  0  0
 12 34  1  0  0  0  0
 13 35  1  0  0  0  0
 14 19  1  0  0  0  0
 14 36  1  0  0  0  0
 15 20  1  0  0  0  0
 16 21  1  0  0  0  0
 16 22  1  0  0  0  0
 16 37  1  1  0  0  0
 17 23  1  0  0  0  0
 17 38  1  0  0  0  0
 18 24  2  0  0  0  0
 18 39  1  0  0  0  0
 19 25  1  0  0  0  0
 20 26  1  0  0  0  0
 20 27  1  0  0  0  0
 20 40  1  6  0  0  0
 21 41  1  0  0  0  0
 22 28  1  0  0  0  0
 22 26  1  0  0  0  0
 22 42  1  6  0  0  0
 23 29  2  0  0  0  0
 23 43  1  0  0  0  0
 24 29  1  0  0  0  0
 24 44  1  0  0  0  0
 25 45  1  0  0  0  0
 26 30  1  0  0  0  0
 26 46  1  1  0  0  0
 27 31  1  0  0  0  0
 27 47  1  0  0  0  0
 27 48  1  0  0  0  0
 28 49  1  0  0  0  0
 29 32  1  0  0  0  0
 30 50  1  0  0  0  0
 31 51  1  0  0  0  0
 32 52  1  0  0  0  0
M  END
>  <Molecule Name>
Kaempferol 3-O-glucoside

$$$$
Ferulic acid
 OpenBabel02222300512D

 24 24  0  0  0  0  0  0  0  0999 V2000
    0.0000    0.0000    0.0000 O   0  0  0  0  0  0  0  0  0  0  0  0
   -0.0117   -1.4829    0.0000 C   0  0  0  0  0  0  0  0  0  0  0  0
    1.2711   -2.2244    0.0000 O   0  0  0  0  0  0  0  0  0  0  0  0
   -1.3182   -2.2244    0.0000 C   0  0  0  0  0  0  0  0  0  0  0  0
   -2.6246   -1.4594    0.0000 C   0  0  0  0  0  0  0  0  0  0  0  0
   -3.9311   -2.2009    0.0000 C   0  0  0  0  0  0  0  0  0  0  0  0
   -5.2375   -1.4359    0.0000 C   0  0  0  0  0  0  0  0  0  0  0  0
   -3.9428   -3.6839    0.0000 C   0  0  0  0  0  0  0  0  0  0  0  0
   -6.5440   -2.1774    0.0000 C   0  0  0  0  0  0  0  0  0  0  0  0
   -5.2493   -4.4254    0.0000 C   0  0  0  0  0  0  0  0  0  0  0  0
   -7.8504   -1.4123    0.0000 O   0  0  0  0  0  0  0  0  0  0  0  0
   -6.5557   -3.6604    0.0000 C   0  0  0  0  0  0  0  0  0  0  0  0
   -9.1569   -2.1538    0.0000 C   0  0  0  0  0  0  0  0  0  0  0  0
   -7.8622   -4.4019    0.0000 O   0  0  0  0  0  0  0  0  0  0  0  0
    1.2706   -3.1614    0.0000 H   0  0  0  0  0  0  0  0  0  0  0  0
   -1.3252   -3.2564    0.0000 H   0  0  0  0  0  0  0  0  0  0  0  0
   -2.6176   -0.4274    0.0000 H   0  0  0  0  0  0  0  0  0  0  0  0
   -5.2305   -0.4039    0.0000 H   0  0  0  0  0  0  0  0  0  0  0  0
   -3.0530   -4.2067    0.0000 H   0  0  0  0  0  0  0  0  0  0  0  0
   -5.2563   -5.4574    0.0000 H   0  0  0  0  0  0  0  0  0  0  0  0
  -10.0796   -1.6120    0.0000 H   0  0  0  0  0  0  0  0  0  0  0  0
   -9.1648   -3.2238    0.0000 H   0  0  0  0  0  0  0  0  0  0  0  0
  -10.0875   -2.6819    0.0000 H   0  0  0  0  0  0  0  0  0  0  0  0
   -8.6702   -3.9274    0.0000 H   0  0  0  0  0  0  0  0  0  0  0  0
  1  2  2  0  0  0  0
  2  3  1  0  0  0  0
  2  4  1  0  0  0  0
  3 15  1  0  0  0  0
  4  5  2  0  0  0  0
  4 16  1  0  0  0  0
  5  6  1  0  0  0  0
  5 17  1  0  0  0  0
  6  7  2  0  0  0  0
  6  8  1  0  0  0  0
  7  9  1  0  0  0  0
  7 18  1  0  0  0  0
  8 10  2  0  0  0  0
  8 19  1  0  0  0  0
  9 11  1  0  0  0  0
  9 12  2  0  0  0  0
 10 12  1  0  0  0  0
 10 20  1  0  0  0  0
 11 13  1  0  0  0  0
 12 14  1  0  0  0  0
 13 21  1  0  0  0  0
 13 22  1  0  0  0  0
 13 23  1  0  0  0  0
 14 24  1  0  0  0  0
M  END
>  <Molecule Name>
Ferulic acid

$$$$
Vanillic acid
 OpenBabel02222300512D

 20 20  0  0  0  0  0  0  0  0999 V2000
    0.0000    0.0000    0.0000 O   0  0  0  0  0  0  0  0  0  0  0  0
   -0.0118   -1.4886    0.0000 C   0  0  0  0  0  0  0  0  0  0  0  0
    1.2760   -2.2211    0.0000 O   0  0  0  0  0  0  0  0  0  0  0  0
   -1.3232   -2.2211    0.0000 C   0  0  0  0  0  0  0  0  0  0  0  0
   -2.6347   -1.4650    0.0000 C   0  0  0  0  0  0  0  0  0  0  0  0
   -1.3350   -3.7098    0.0000 C   0  0  0  0  0  0  0  0  0  0  0  0
   -3.9461   -2.1975    0.0000 C   0  0  0  0  0  0  0  0  0  0  0  0
   -2.6465   -4.4423    0.0000 C   0  0  0  0  0  0  0  0  0  0  0  0
   -5.2576   -1.4414    0.0000 O   0  0  0  0  0  0  0  0  0  0  0  0
   -3.9579   -3.6862    0.0000 C   0  0  0  0  0  0  0  0  0  0  0  0
   -6.5690   -2.1739    0.0000 C   0  0  0  0  0  0  0  0  0  0  0  0
   -5.2694   -4.4187    0.0000 O   0  0  0  0  0  0  0  0  0  0  0  0
    1.2820   -3.1581    0.0000 H   0  0  0  0  0  0  0  0  0  0  0  0
   -2.6277   -0.4330    0.0000 H   0  0  0  0  0  0  0  0  0  0  0  0
   -0.4470   -4.2357    0.0000 H   0  0  0  0  0  0  0  0  0  0  0  0
   -2.6535   -5.4743    0.0000 H   0  0  0  0  0  0  0  0  0  0  0  0
   -7.4880   -1.6258    0.0000 H   0  0  0  0  0  0  0  0  0  0  0  0
   -6.5842   -3.2438    0.0000 H   0  0  0  0  0  0  0  0  0  0  0  0
   -7.5032   -2.6957    0.0000 H   0  0  0  0  0  0  0  0  0  0  0  0
   -6.0741   -3.9387    0.0000 H   0  0  0  0  0  0  0  0  0  0  0  0
  1  2  2  0  0  0  0
  2  3  1  0  0  0  0
  2  4  1  0  0  0  0
  3 13  1  0  0  0  0
  4  5  2  0  0  0  0
  4  6  1  0  0  0  0
  5  7  1  0  0  0  0
  5 14  1  0  0  0  0
  6  8  2  0  0  0  0
  6 15  1  0  0  0  0
  7  9  1  0  0  0  0
  7 10  2  0  0  0  0
  8 10  1  0  0  0  0
  8 16  1  0  0  0  0
  9 11  1  0  0  0  0
 10 12  1  0  0  0  0
 11 17  1  0  0  0  0
 11 18  1  0  0  0  0
 11 19  1  0  0  0  0
 12 20  1  0  0  0  0
M  END
>  <Molecule Name>
Vanillic acid

$$$$
Chlorogenic acid
 OpenBabel02222300512D

 43 44  0  0  0  0  0  0  0  0999 V2000
    0.0000    0.0000    0.0000 O   0  0  0  0  0  0  0  0  0  0  0  0
   -0.0118   -1.4895    0.0000 C   0  0  0  0  0  0  0  0  0  0  0  0
    1.2767   -2.2224    0.0000 O   0  0  0  0  0  0  0  0  0  0  0  0
   -1.3240   -2.2224    0.0000 C   0  0  0  0  0  0  0  0  0  0  0  0
    2.5652   -1.4658    0.0000 C   0  0  1  0  0  0  0  0  0  0  0  0
   -2.6362   -1.4658    0.0000 C   0  0  0  0  0  0  0  0  0  0  0  0
    2.5534    0.0472    0.0000 C   0  0  2  0  0  0  0  0  0  0  0  0
    3.8538   -2.1988    0.0000 C   0  0  0  0  0  0  0  0  0  0  0  0
   -3.9483   -2.1988    0.0000 C   0  0  0  0  0  0  0  0  0  0  0  0
    1.2412    0.8038    0.0000 O   0  0  0  0  0  0  0  0  0  0  0  0
    3.8419    0.8038    0.0000 C   0  0  2  0  0  0  0  0  0  0  0  0
    5.1423   -1.4422    0.0000 C   0  0  2  0  0  0  0  0  0  0  0  0
   -5.2605   -1.4422    0.0000 C   0  0  0  0  0  0  0  0  0  0  0  0
   -3.9602   -3.6883    0.0000 C   0  0  0  0  0  0  0  0  0  0  0  0
    3.8301    2.3170    0.0000 O   0  0  0  0  0  0  0  0  0  0  0  0
    5.1305    0.0709    0.0000 C   0  0  0  0  0  0  0  0  0  0  0  0
    5.1305   -2.9317    0.0000 O   0  0  0  0  0  0  0  0  0  0  0  0
    6.4309   -2.1751    0.0000 C   0  0  0  0  0  0  0  0  0  0  0  0
   -6.5727   -2.1751    0.0000 C   0  0  0  0  0  0  0  0  0  0  0  0
   -5.2724   -4.4330    0.0000 C   0  0  0  0  0  0  0  0  0  0  0  0
    6.4190   -3.6646    0.0000 O   0  0  0  0  0  0  0  0  0  0  0  0
    7.7194   -1.4185    0.0000 O   0  0  0  0  0  0  0  0  0  0  0  0
   -7.8849   -1.4185    0.0000 O   0  0  0  0  0  0  0  0  0  0  0  0
   -6.5845   -3.6646    0.0000 C   0  0  0  0  0  0  0  0  0  0  0  0
   -7.8967   -4.4094    0.0000 O   0  0  0  0  0  0  0  0  0  0  0  0
   -1.3310   -3.2544    0.0000 H   0  0  0  0  0  0  0  0  0  0  0  0
    1.6345   -0.9378    0.0000 H   0  0  0  0  0  0  0  0  0  0  0  0
   -2.6292   -0.4338    0.0000 H   0  0  0  0  0  0  0  0  0  0  0  0
    1.6290   -0.4917    0.0000 H   0  0  0  0  0  0  0  0  0  0  0  0
    3.8612   -3.2688    0.0000 H   0  0  0  0  0  0  0  0  0  0  0  0
    4.7842   -2.7272    0.0000 H   0  0  0  0  0  0  0  0  0  0  0  0
    1.2406    1.7738    0.0000 H   0  0  0  0  0  0  0  0  0  0  0  0
    2.9112    1.3318    0.0000 H   0  0  0  0  0  0  0  0  0  0  0  0
   -5.2535   -0.4102    0.0000 H   0  0  0  0  0  0  0  0  0  0  0  0
   -3.0705   -4.2112    0.0000 H   0  0  0  0  0  0  0  0  0  0  0  0
    4.6663    2.8085    0.0000 H   0  0  0  0  0  0  0  0  0  0  0  0
    6.0533    0.6125    0.0000 H   0  0  0  0  0  0  0  0  0  0  0  0
    6.0611   -0.4572    0.0000 H   0  0  0  0  0  0  0  0  0  0  0  0
    4.2866   -3.4100    0.0000 H   0  0  0  0  0  0  0  0  0  0  0  0
   -5.2794   -5.4650    0.0000 H   0  0  0  0  0  0  0  0  0  0  0  0
    8.5343   -1.8810    0.0000 H   0  0  0  0  0  0  0  0  0  0  0  0
   -7.8854   -0.4815    0.0000 H   0  0  0  0  0  0  0  0  0  0  0  0
   -8.7047   -3.9350    0.0000 H   0  0  0  0  0  0  0  0  0  0  0  0
  1  2  2  0  0  0  0
  2  3  1  0  0  0  0
  2  4  1  0  0  0  0
  4  6  2  0  0  0  0
  4 26  1  0  0  0  0
  5  3  1  0  0  0  0
  5  7  1  0  0  0  0
  5  8  1  0  0  0  0
  5 27  1  6  0  0  0
  6  9  1  0  0  0  0
  6 28  1  0  0  0  0
  7 10  1  0  0  0  0
  7 11  1  0  0  0  0
  7 29  1  1  0  0  0
  8 12  1  0  0  0  0
  8 30  1  0  0  0  0
  8 31  1  0  0  0  0
  9 13  2  0  0  0  0
  9 14  1  0  0  0  0
 10 32  1  0  0  0  0
 11 15  1  0  0  0  0
 11 16  1  0  0  0  0
 11 33  1  1  0  0  0
 12 17  1  6  0  0  0
 12 18  1  0  0  0  0
 12 16  1  0  0  0  0
 13 19  1  0  0  0  0
 13 34  1  0  0  0  0
 14 20  2  0  0  0  0
 14 35  1  0  0  0  0
 15 36  1  0  0  0  0
 16 37  1  0  0  0  0
 16 38  1  0  0  0  0
 17 39  1  0  0  0  0
 18 21  2  0  0  0  0
 18 22  1  0  0  0  0
 19 23  1  0  0  0  0
 19 24  2  0  0  0  0
 20 24  1  0  0  0  0
 20 40  1  0  0  0  0
 22 41  1  0  0  0  0
 23 42  1  0  0  0  0
 24 25  1  0  0  0  0
 25 43  1  0  0  0  0
M  END
>  <Molecule Name>
Chlorogenic acid

$$$$
5,5,8a-Trimethyl-3,5,6,7,8,8a hexahydro-2H-chromene
 OpenBabel02222300512D

 33 34  0  0  0  0  0  0  0  0999 V2000
    0.0000    0.0000    0.0000 O   0  0  0  0  0  0  0  0  0  0  0  0
   -1.3022    0.7625    0.0000 C   0  0  2  0  0  0  0  0  0  0  0  0
    1.2788    0.7625    0.0000 C   0  0  0  0  0  0  0  0  0  0  0  0
   -1.3140    2.2643    0.0000 C   0  0  0  0  0  0  0  0  0  0  0  0
   -2.6045    0.0234    0.0000 C   0  0  0  0  0  0  0  0  0  0  0  0
   -1.3140   -0.7156    0.0000 C   0  0  0  0  0  0  0  0  0  0  0  0
    1.2670    2.2643    0.0000 C   0  0  0  0  0  0  0  0  0  0  0  0
   -0.0351    3.0269    0.0000 C   0  0  0  0  0  0  0  0  0  0  0  0
   -2.6162    3.0269    0.0000 C   0  0  0  0  0  0  0  0  0  0  0  0
   -3.9068    0.7860    0.0000 C   0  0  0  0  0  0  0  0  0  0  0  0
   -3.9185    2.2877    0.0000 C   0  0  0  0  0  0  0  0  0  0  0  0
   -3.6839    4.0945    0.0000 C   0  0  0  0  0  0  0  0  0  0  0  0
   -1.8771    4.3291    0.0000 C   0  0  0  0  0  0  0  0  0  0  0  0
    2.2113    0.2377    0.0000 H   0  0  0  0  0  0  0  0  0  0  0  0
    2.2004    1.3062    0.0000 H   0  0  0  0  0  0  0  0  0  0  0  0
   -2.6117   -1.0466    0.0000 H   0  0  0  0  0  0  0  0  0  0  0  0
   -3.5346   -0.5056    0.0000 H   0  0  0  0  0  0  0  0  0  0  0  0
   -2.2449   -1.2432    0.0000 H   0  0  0  0  0  0  0  0  0  0  0  0
   -0.3917   -1.2580    0.0000 H   0  0  0  0  0  0  0  0  0  0  0  0
   -1.3225   -1.7856    0.0000 H   0  0  0  0  0  0  0  0  0  0  0  0
    2.1932    2.8001    0.0000 H   0  0  0  0  0  0  0  0  0  0  0  0
    1.2699    3.3343    0.0000 H   0  0  0  0  0  0  0  0  0  0  0  0
   -0.0392    4.0589    0.0000 H   0  0  0  0  0  0  0  0  0  0  0  0
   -4.8330    0.2502    0.0000 H   0  0  0  0  0  0  0  0  0  0  0  0
   -4.8357    1.3170    0.0000 H   0  0  0  0  0  0  0  0  0  0  0  0
   -4.8453    2.8225    0.0000 H   0  0  0  0  0  0  0  0  0  0  0  0
   -4.8430    1.7490    0.0000 H   0  0  0  0  0  0  0  0  0  0  0  0
   -3.4070    5.1281    0.0000 H   0  0  0  0  0  0  0  0  0  0  0  0
   -4.7174    3.8175    0.0000 H   0  0  0  0  0  0  0  0  0  0  0  0
   -4.4405    4.8511    0.0000 H   0  0  0  0  0  0  0  0  0  0  0  0
   -0.8071    4.3370    0.0000 H   0  0  0  0  0  0  0  0  0  0  0  0
   -2.4189    5.2518    0.0000 H   0  0  0  0  0  0  0  0  0  0  0  0
   -1.3489    5.2597    0.0000 H   0  0  0  0  0  0  0  0  0  0  0  0
  1  2  1  0  0  0  0
  1  3  1  0  0  0  0
  2  4  1  0  0  0  0
  2  5  1  0  0  0  0
  2  6  1  6  0  0  0
  3  7  1  0  0  0  0
  3 14  1  0  0  0  0
  3 15  1  0  0  0  0
  4  8  2  0  0  0  0
  4  9  1  0  0  0  0
  5 10  1  0  0  0  0
  5 16  1  0  0  0  0
  5 17  1  0  0  0  0
  6 18  1  0  0  0  0
  6 19  1  0  0  0  0
  6 20  1  0  0  0  0
  7  8  1  0  0  0  0
  7 21  1  0  0  0  0
  7 22  1  0  0  0  0
  8 23  1  0  0  0  0
  9 11  1  0  0  0  0
  9 12  1  0  0  0  0
  9 13  1  0  0  0  0
 10 11  1  0  0  0  0
 10 24  1  0  0  0  0
 10 25  1  0  0  0  0
 11 26  1  0  0  0  0
 11 27  1  0  0  0  0
 12 28  1  0  0  0  0
 12 29  1  0  0  0  0
 12 30  1  0  0  0  0
 13 31  1  0  0  0  0
 13 32  1  0  0  0  0
 13 33  1  0  0  0  0
M  END
>  <Molecule Name>
5,5,8a-Trimethyl-3,5,6,7,8,8a hexahydro-2H-chromene

$$$$
6,3-dimethoxy luteolin -7-O--arabinopyranosyl(16)-O-- galactopyranoside
 OpenBabel02222300512D

 76 80  0  0  0  0  0  0  0  0999 V2000
    0.0000    0.0000    0.0000 O   0  0  0  0  0  0  0  0  0  0  0  0
   -0.0118    1.5132    0.0000 C   0  0  0  0  0  0  0  0  0  0  0  0
   -1.3241    2.2699    0.0000 C   0  0  0  0  0  0  0  0  0  0  0  0
    1.2768    2.2699    0.0000 C   0  0  0  0  0  0  0  0  0  0  0  0
   -2.6364    1.5369    0.0000 C   0  0  0  0  0  0  0  0  0  0  0  0
   -1.3359    3.7832    0.0000 C   0  0  0  0  0  0  0  0  0  0  0  0
    1.2650    3.7832    0.0000 C   0  0  0  0  0  0  0  0  0  0  0  0
   -2.6482    0.0472    0.0000 O   0  0  0  0  0  0  0  0  0  0  0  0
   -3.9487    2.2935    0.0000 C   0  0  0  0  0  0  0  0  0  0  0  0
   -0.0472    4.5398    0.0000 O   0  0  0  0  0  0  0  0  0  0  0  0
   -2.6482    4.5398    0.0000 C   0  0  0  0  0  0  0  0  0  0  0  0
    2.5536    4.5398    0.0000 C   0  0  0  0  0  0  0  0  0  0  0  0
   -5.2610    1.5605    0.0000 O   0  0  0  0  0  0  0  0  0  0  0  0
   -3.9605    3.8068    0.0000 C   0  0  0  0  0  0  0  0  0  0  0  0
    3.8423    3.7950    0.0000 C   0  0  0  0  0  0  0  0  0  0  0  0
    2.5418    6.0531    0.0000 C   0  0  0  0  0  0  0  0  0  0  0  0
   -5.2728    0.0709    0.0000 C   0  0  0  0  0  0  0  0  0  0  0  0
   -5.2728    4.5635    0.0000 O   0  0  0  0  0  0  0  0  0  0  0  0
    5.1310    4.5517    0.0000 C   0  0  0  0  0  0  0  0  0  0  0  0
    3.8305    6.8098    0.0000 C   0  0  0  0  0  0  0  0  0  0  0  0
   -6.5852    3.8305    0.0000 C   0  0  2  0  0  0  0  0  0  0  0  0
    6.4196    3.8187    0.0000 O   0  0  0  0  0  0  0  0  0  0  0  0
    5.1192    6.0650    0.0000 C   0  0  0  0  0  0  0  0  0  0  0  0
   -7.8975    4.5871    0.0000 C   0  0  2  0  0  0  0  0  0  0  0  0
   -6.5970    2.3408    0.0000 C   0  0  0  0  0  0  0  0  0  0  0  0
    7.7083    4.5753    0.0000 C   0  0  0  0  0  0  0  0  0  0  0  0
    6.4078    6.8216    0.0000 O   0  0  0  0  0  0  0  0  0  0  0  0
   -7.9093    6.1004    0.0000 O   0  0  0  0  0  0  0  0  0  0  0  0
   -9.2098    3.8541    0.0000 C   0  0  1  0  0  0  0  0  0  0  0  0
   -7.9093    1.6078    0.0000 O   0  0  0  0  0  0  0  0  0  0  0  0
  -10.5221    4.6108    0.0000 O   0  0  0  0  0  0  0  0  0  0  0  0
   -9.2216    2.3645    0.0000 C   0  0  1  0  0  0  0  0  0  0  0  0
  -10.5339    1.6315    0.0000 O   0  0  0  0  0  0  0  0  0  0  0  0
  -10.5457    0.1418    0.0000 C   0  0  0  0  0  0  0  0  0  0  0  0
   -9.2571   -0.5911    0.0000 C   0  0  1  0  0  0  0  0  0  0  0  0
   -7.9684    0.1655    0.0000 O   0  0  0  0  0  0  0  0  0  0  0  0
   -9.2689   -2.0807    0.0000 C   0  0  2  0  0  0  0  0  0  0  0  0
   -6.6797   -0.5793    0.0000 C   0  0  1  0  0  0  0  0  0  0  0  0
  -10.5812   -2.8137    0.0000 O   0  0  0  0  0  0  0  0  0  0  0  0
   -7.9802   -2.8256    0.0000 C   0  0  1  0  0  0  0  0  0  0  0  0
   -5.3911    0.1773    0.0000 O   0  0  0  0  0  0  0  0  0  0  0  0
   -6.6916   -2.0689    0.0000 C   0  0  1  0  0  0  0  0  0  0  0  0
   -7.9921   -4.3152    0.0000 O   0  0  0  0  0  0  0  0  0  0  0  0
   -5.4029   -2.8019    0.0000 O   0  0  0  0  0  0  0  0  0  0  0  0
    2.1744    1.7607    0.0000 H   0  0  0  0  0  0  0  0  0  0  0  0
   -3.4634   -0.4149    0.0000 H   0  0  0  0  0  0  0  0  0  0  0  0
   -2.6412    5.5718    0.0000 H   0  0  0  0  0  0  0  0  0  0  0  0
    3.8459    2.7630    0.0000 H   0  0  0  0  0  0  0  0  0  0  0  0
    1.6442    6.5623    0.0000 H   0  0  0  0  0  0  0  0  0  0  0  0
   -6.2037   -0.4567    0.0000 H   0  0  0  0  0  0  0  0  0  0  0  0
   -4.3504   -0.4714    0.0000 H   0  0  0  0  0  0  0  0  0  0  0  0
   -5.2813   -0.9991    0.0000 H   0  0  0  0  0  0  0  0  0  0  0  0
    3.8269    7.8418    0.0000 H   0  0  0  0  0  0  0  0  0  0  0  0
   -6.5779    4.9005    0.0000 H   0  0  0  0  0  0  0  0  0  0  0  0
   -6.9731    5.1260    0.0000 H   0  0  0  0  0  0  0  0  0  0  0  0
   -5.6763    1.7956    0.0000 H   0  0  0  0  0  0  0  0  0  0  0  0
   -6.6105    1.2709    0.0000 H   0  0  0  0  0  0  0  0  0  0  0  0
    8.6388    4.0471    0.0000 H   0  0  0  0  0  0  0  0  0  0  0  0
    7.7005    5.6453    0.0000 H   0  0  0  0  0  0  0  0  0  0  0  0
    8.6310    5.1170    0.0000 H   0  0  0  0  0  0  0  0  0  0  0  0
    7.2227    6.3591    0.0000 H   0  0  0  0  0  0  0  0  0  0  0  0
   -7.0731    6.5919    0.0000 H   0  0  0  0  0  0  0  0  0  0  0  0
   -9.2025    4.9241    0.0000 H   0  0  0  0  0  0  0  0  0  0  0  0
  -10.5226    5.5808    0.0000 H   0  0  0  0  0  0  0  0  0  0  0  0
  -10.1423    2.9097    0.0000 H   0  0  0  0  0  0  0  0  0  0  0  0
  -11.4727   -0.3925    0.0000 H   0  0  0  0  0  0  0  0  0  0  0  0
  -10.5426   -0.9282    0.0000 H   0  0  0  0  0  0  0  0  0  0  0  0
   -9.2645    0.4789    0.0000 H   0  0  0  0  0  0  0  0  0  0  0  0
  -10.1896   -1.5355    0.0000 H   0  0  0  0  0  0  0  0  0  0  0  0
   -6.6834    0.4907    0.0000 H   0  0  0  0  0  0  0  0  0  0  0  0
  -11.4143   -2.3168    0.0000 H   0  0  0  0  0  0  0  0  0  0  0  0
   -8.9091   -3.3567    0.0000 H   0  0  0  0  0  0  0  0  0  0  0  0
   -4.5475   -0.3015    0.0000 H   0  0  0  0  0  0  0  0  0  0  0  0
   -5.7645   -1.5346    0.0000 H   0  0  0  0  0  0  0  0  0  0  0  0
   -8.8360   -4.7935    0.0000 H   0  0  0  0  0  0  0  0  0  0  0  0
   -5.3966   -3.7719    0.0000 H   0  0  0  0  0  0  0  0  0  0  0  0
  1  2  2  0  0  0  0
  2  3  1  0  0  0  0
  2  4  1  0  0  0  0
  3  5  2  0  0  0  0
  3  6  1  0  0  0  0
  4  7  2  0  0  0  0
  4 45  1  0  0  0  0
  5  8  1  0  0  0  0
  5  9  1  0  0  0  0
  6 10  1  0  0  0  0
  6 11  2  0  0  0  0
  7 12  1  0  0  0  0
  7 10  1  0  0  0  0
  8 46  1  0  0  0  0
  9 13  1  0  0  0  0
  9 14  2  0  0  0  0
 11 14  1  0  0  0  0
 11 47  1  0  0  0  0
 12 15  2  0  0  0  0
 12 16  1  0  0  0  0
 13 17  1  0  0  0  0
 14 18  1  0  0  0  0
 15 19  1  0  0  0  0
 15 48  1  0  0  0  0
 16 20  2  0  0  0  0
 16 49  1  0  0  0  0
 17 50  1  0  0  0  0
 17 51  1  0  0  0  0
 17 52  1  0  0  0  0
 19 22  1  0  0  0  0
 19 23  2  0  0  0  0
 20 23  1  0  0  0  0
 20 53  1  0  0  0  0
 21 18  1  0  0  0  0
 21 24  1  0  0  0  0
 21 25  1  0  0  0  0
 21 54  1  6  0  0  0
 22 26  1  0  0  0  0
 23 27  1  0  0  0  0
 24 28  1  0  0  0  0
 24 29  1  0  0  0  0
 24 55  1  6  0  0  0
 25 30  1  0  0  0  0
 25 56  1  0  0  0  0
 25 57  1  0  0  0  0
 26 58  1  0  0  0  0
 26 59  1  0  0  0  0
 26 60  1  0  0  0  0
 27 61  1  0  0  0  0
 28 62  1  0  0  0  0
 29 31  1  0  0  0  0
 29 32  1  0  0  0  0
 29 63  1  1  0  0  0
 30 32  1  0  0  0  0
 31 64  1  0  0  0  0
 32 33  1  0  0  0  0
 32 65  1  6  0  0  0
 33 34  1  0  0  0  0
 34 66  1  0  0  0  0
 34 67  1  0  0  0  0
 35 34  1  0  0  0  0
 35 36  1  0  0  0  0
 35 37  1  0  0  0  0
 35 68  1  6  0  0  0
 36 38  1  0  0  0  0
 37 39  1  0  0  0  0
 37 40  1  0  0  0  0
 37 69  1  6  0  0  0
 38 41  1  0  0  0  0
 38 42  1  0  0  0  0
 38 70  1  6  0  0  0
 39 71  1  0  0  0  0
 40 43  1  0  0  0  0
 40 42  1  0  0  0  0
 40 72  1  6  0  0  0
 41 73  1  0  0  0  0
 42 44  1  0  0  0  0
 42 74  1  1  0  0  0
 43 75  1  0  0  0  0
 44 76  1  0  0  0  0
M  END
>  <Molecule Name>
6,3-dimethoxy luteolin -7-O--arabinopyranosyl(16)-O-- galactopyranoside

$$$$
Kaempferol 3-O-rutinoside
 OpenBabel02222300512D

 72 76  0  0  0  0  0  0  0  0999 V2000
    0.0000    0.0000    0.0000 O   0  0  0  0  0  0  0  0  0  0  0  0
   -0.0117    1.5103    0.0000 C   0  0  0  0  0  0  0  0  0  0  0  0
    1.2743    2.2773    0.0000 C   0  0  0  0  0  0  0  0  0  0  0  0
   -1.3215    2.2773    0.0000 C   0  0  0  0  0  0  0  0  0  0  0  0
    2.5605    1.5339    0.0000 O   0  0  0  0  0  0  0  0  0  0  0  0
    1.2625    3.7877    0.0000 C   0  0  0  0  0  0  0  0  0  0  0  0
   -1.3333    3.7877    0.0000 C   0  0  0  0  0  0  0  0  0  0  0  0
   -2.6313    1.5339    0.0000 C   0  0  0  0  0  0  0  0  0  0  0  0
    2.5487    0.0471    0.0000 C   0  0  2  0  0  0  0  0  0  0  0  0
   -0.0471    4.5546    0.0000 O   0  0  0  0  0  0  0  0  0  0  0  0
    2.5487    4.5546    0.0000 C   0  0  0  0  0  0  0  0  0  0  0  0
   -2.6431    4.5546    0.0000 C   0  0  0  0  0  0  0  0  0  0  0  0
   -2.6431    0.0471    0.0000 O   0  0  0  0  0  0  0  0  0  0  0  0
   -3.9411    2.3009    0.0000 C   0  0  0  0  0  0  0  0  0  0  0  0
    1.2389   -0.6961    0.0000 O   0  0  0  0  0  0  0  0  0  0  0  0
    3.8349   -0.6961    0.0000 C   0  0  2  0  0  0  0  0  0  0  0  0
    2.5369    6.0650    0.0000 C   0  0  0  0  0  0  0  0  0  0  0  0
    3.8349    3.8113    0.0000 C   0  0  0  0  0  0  0  0  0  0  0  0
   -3.9528    3.8113    0.0000 C   0  0  0  0  0  0  0  0  0  0  0  0
    1.2271   -2.1829    0.0000 C   0  0  1  0  0  0  0  0  0  0  0  0
    5.1210    0.0707    0.0000 O   0  0  0  0  0  0  0  0  0  0  0  0
    3.8231   -2.1829    0.0000 C   0  0  2  0  0  0  0  0  0  0  0  0
    3.8231    6.8320    0.0000 C   0  0  0  0  0  0  0  0  0  0  0  0
    5.1210    4.5782    0.0000 C   0  0  0  0  0  0  0  0  0  0  0  0
   -5.2626    4.5782    0.0000 O   0  0  0  0  0  0  0  0  0  0  0  0
    2.5133   -2.9145    0.0000 C   0  0  2  0  0  0  0  0  0  0  0  0
   -0.0825   -2.9145    0.0000 C   0  0  0  0  0  0  0  0  0  0  0  0
    5.1092   -2.9145    0.0000 O   0  0  0  0  0  0  0  0  0  0  0  0
    5.1092    6.0886    0.0000 C   0  0  0  0  0  0  0  0  0  0  0  0
    2.5015   -4.4012    0.0000 O   0  0  0  0  0  0  0  0  0  0  0  0
   -1.3923   -2.1593    0.0000 O   0  0  0  0  0  0  0  0  0  0  0  0
    6.3954    6.8556    0.0000 O   0  0  0  0  0  0  0  0  0  0  0  0
   -2.7021   -2.8909    0.0000 C   0  0  2  0  0  0  0  0  0  0  0  0
   -4.0118   -2.1357    0.0000 O   0  0  0  0  0  0  0  0  0  0  0  0
   -2.7139   -4.3776    0.0000 C   0  0  2  0  0  0  0  0  0  0  0  0
   -5.3216   -2.8673    0.0000 C   0  0  2  0  0  0  0  0  0  0  0  0
   -1.4277   -5.1210    0.0000 O   0  0  0  0  0  0  0  0  0  0  0  0
   -4.0236   -5.1210    0.0000 C   0  0  1  0  0  0  0  0  0  0  0  0
   -5.3334   -4.3540    0.0000 C   0  0  1  0  0  0  0  0  0  0  0  0
   -6.6314   -2.1121    0.0000 C   0  0  0  0  0  0  0  0  0  0  0  0
   -4.0354   -6.6078    0.0000 O   0  0  0  0  0  0  0  0  0  0  0  0
   -6.6432   -5.0974    0.0000 O   0  0  0  0  0  0  0  0  0  0  0  0
    1.6262    0.5892    0.0000 H   0  0  0  0  0  0  0  0  0  0  0  0
   -2.6361    5.5866    0.0000 H   0  0  0  0  0  0  0  0  0  0  0  0
   -3.4583   -0.4149    0.0000 H   0  0  0  0  0  0  0  0  0  0  0  0
   -4.8344    1.7842    0.0000 H   0  0  0  0  0  0  0  0  0  0  0  0
    3.8276    0.3739    0.0000 H   0  0  0  0  0  0  0  0  0  0  0  0
    1.6376    6.5712    0.0000 H   0  0  0  0  0  0  0  0  0  0  0  0
    3.8420    2.7793    0.0000 H   0  0  0  0  0  0  0  0  0  0  0  0
    0.3064   -1.6377    0.0000 H   0  0  0  0  0  0  0  0  0  0  0  0
    5.9678   -0.4025    0.0000 H   0  0  0  0  0  0  0  0  0  0  0  0
    4.7502   -1.6486    0.0000 H   0  0  0  0  0  0  0  0  0  0  0  0
    3.8161    7.8640    0.0000 H   0  0  0  0  0  0  0  0  0  0  0  0
    6.0203    4.0720    0.0000 H   0  0  0  0  0  0  0  0  0  0  0  0
   -5.2569    5.5152    0.0000 H   0  0  0  0  0  0  0  0  0  0  0  0
    1.5863   -3.4488    0.0000 H   0  0  0  0  0  0  0  0  0  0  0  0
   -0.0898   -3.9845    0.0000 H   0  0  0  0  0  0  0  0  0  0  0  0
   -1.0108   -3.4466    0.0000 H   0  0  0  0  0  0  0  0  0  0  0  0
    5.1154   -3.8845    0.0000 H   0  0  0  0  0  0  0  0  0  0  0  0
    1.6576   -4.8795    0.0000 H   0  0  0  0  0  0  0  0  0  0  0  0
    7.2134    6.3986    0.0000 H   0  0  0  0  0  0  0  0  0  0  0  0
   -2.6948   -1.8209    0.0000 H   0  0  0  0  0  0  0  0  0  0  0  0
   -1.7850   -3.8465    0.0000 H   0  0  0  0  0  0  0  0  0  0  0  0
   -5.3143   -1.7973    0.0000 H   0  0  0  0  0  0  0  0  0  0  0  0
   -1.4282   -6.0910    0.0000 H   0  0  0  0  0  0  0  0  0  0  0  0
   -3.1011   -5.6631    0.0000 H   0  0  0  0  0  0  0  0  0  0  0  0
   -6.2559   -3.8119    0.0000 H   0  0  0  0  0  0  0  0  0  0  0  0
   -6.6320   -1.0421    0.0000 H   0  0  0  0  0  0  0  0  0  0  0  0
   -7.5577   -2.6476    0.0000 H   0  0  0  0  0  0  0  0  0  0  0  0
   -7.5584   -1.5776    0.0000 H   0  0  0  0  0  0  0  0  0  0  0  0
   -4.8793   -7.0861    0.0000 H   0  0  0  0  0  0  0  0  0  0  0  0
   -7.4796   -4.6062    0.0000 H   0  0  0  0  0  0  0  0  0  0  0  0
  1  2  2  0  0  0  0
  2  3  1  0  0  0  0
  2  4  1  0  0  0  0
  3  5  1  0  0  0  0
  3  6  2  0  0  0  0
  4  7  2  0  0  0  0
  4  8  1  0  0  0  0
  6 10  1  0  0  0  0
  6 11  1  0  0  0  0
  7 12  1  0  0  0  0
  7 10  1  0  0  0  0
  8 13  1  0  0  0  0
  8 14  2  0  0  0  0
  9  5  1  0  0  0  0
  9 15  1  0  0  0  0
  9 16  1  0  0  0  0
  9 43  1  6  0  0  0
 11 17  2  0  0  0  0
 11 18  1  0  0  0  0
 12 19  2  0  0  0  0
 12 44  1  0  0  0  0
 13 45  1  0  0  0  0
 14 19  1  0  0  0  0
 14 46  1  0  0  0  0
 15 20  1  0  0  0  0
 16 21  1  0  0  0  0
 16 22  1  0  0  0  0
 16 47  1  1  0  0  0
 17 23  1  0  0  0  0
 17 48  1  0  0  0  0
 18 24  2  0  0  0  0
 18 49  1  0  0  0  0
 19 25  1  0  0  0  0
 20 26  1  0  0  0  0
 20 27  1  0  0  0  0
 20 50  1  6  0  0  0
 21 51  1  0  0  0  0
 22 28  1  0  0  0  0
 22 26  1  0  0  0  0
 22 52  1  6  0  0  0
 23 29  2  0  0  0  0
 23 53  1  0  0  0  0
 24 29  1  0  0  0  0
 24 54  1  0  0  0  0
 25 55  1  0  0  0  0
 26 30  1  0  0  0  0
 26 56  1  1  0  0  0
 27 31  1  0  0  0  0
 27 57  1  0  0  0  0
 27 58  1  0  0  0  0
 28 59  1  0  0  0  0
 29 32  1  0  0  0  0
 30 60  1  0  0  0  0
 32 61  1  0  0  0  0
 33 31  1  0  0  0  0
 33 34  1  0  0  0  0
 33 35  1  0  0  0  0
 33 62  1  6  0  0  0
 34 36  1  0  0  0  0
 35 37  1  0  0  0  0
 35 38  1  0  0  0  0
 35 63  1  1  0  0  0
 36 39  1  0  0  0  0
 36 40  1  0  0  0  0
 36 64  1  1  0  0  0
 37 65  1  0  0  0  0
 38 41  1  0  0  0  0
 38 39  1  0  0  0  0
 38 66  1  1  0  0  0
 39 42  1  0  0  0  0
 39 67  1  6  0  0  0
 40 68  1  0  0  0  0
 40 69  1  0  0  0  0
 40 70  1  0  0  0  0
 41 71  1  0  0  0  0
 42 72  1  0  0  0  0
M  END
>  <Molecule Name>
Kaempferol 3-O-rutinoside

$$$$
Quercetin 3-O-rhamnoside
 OpenBabel02222300512D

 52 55  0  0  0  0  0  0  0  0999 V2000
    0.0000    0.0000    0.0000 O   0  0  0  0  0  0  0  0  0  0  0  0
    1.2894    0.7571    0.0000 C   0  0  0  0  0  0  0  0  0  0  0  0
    2.5788    0.0236    0.0000 C   0  0  0  0  0  0  0  0  0  0  0  0
    1.2776    2.2713    0.0000 C   0  0  0  0  0  0  0  0  0  0  0  0
    2.5670   -1.4668    0.0000 O   0  0  0  0  0  0  0  0  0  0  0  0
    3.8683    0.7807    0.0000 C   0  0  0  0  0  0  0  0  0  0  0  0
    2.5670    3.0284    0.0000 C   0  0  0  0  0  0  0  0  0  0  0  0
   -0.0354    3.0284    0.0000 C   0  0  0  0  0  0  0  0  0  0  0  0
    1.2539   -2.2003    0.0000 C   0  0  2  0  0  0  0  0  0  0  0  0
    3.8564    2.2949    0.0000 O   0  0  0  0  0  0  0  0  0  0  0  0
    5.1577    0.0473    0.0000 C   0  0  0  0  0  0  0  0  0  0  0  0
    2.5552    4.5426    0.0000 C   0  0  0  0  0  0  0  0  0  0  0  0
   -1.3485    2.2949    0.0000 O   0  0  0  0  0  0  0  0  0  0  0  0
   -0.0473    4.5426    0.0000 C   0  0  0  0  0  0  0  0  0  0  0  0
   -0.0591   -1.4432    0.0000 O   0  0  0  0  0  0  0  0  0  0  0  0
    1.2421   -3.6908    0.0000 C   0  0  2  0  0  0  0  0  0  0  0  0
    6.4471    0.8044    0.0000 C   0  0  0  0  0  0  0  0  0  0  0  0
    5.1459   -1.4432    0.0000 C   0  0  0  0  0  0  0  0  0  0  0  0
    1.2421    5.3115    0.0000 C   0  0  0  0  0  0  0  0  0  0  0  0
   -1.3722   -2.1766    0.0000 C   0  0  2  0  0  0  0  0  0  0  0  0
    2.5315   -4.4361    0.0000 O   0  0  0  0  0  0  0  0  0  0  0  0
   -0.0709   -4.4361    0.0000 C   0  0  1  0  0  0  0  0  0  0  0  0
    7.7366    0.0709    0.0000 C   0  0  0  0  0  0  0  0  0  0  0  0
    6.4353   -2.1766    0.0000 C   0  0  0  0  0  0  0  0  0  0  0  0
    1.2302    6.8257    0.0000 O   0  0  0  0  0  0  0  0  0  0  0  0
   -1.3840   -3.6672    0.0000 C   0  0  1  0  0  0  0  0  0  0  0  0
   -2.6853   -1.4195    0.0000 C   0  0  0  0  0  0  0  0  0  0  0  0
   -0.0828   -5.9266    0.0000 O   0  0  0  0  0  0  0  0  0  0  0  0
    9.0260    0.8280    0.0000 O   0  0  0  0  0  0  0  0  0  0  0  0
    7.7247   -1.4195    0.0000 C   0  0  0  0  0  0  0  0  0  0  0  0
   -2.6971   -4.4124    0.0000 O   0  0  0  0  0  0  0  0  0  0  0  0
    9.0142   -2.1530    0.0000 O   0  0  0  0  0  0  0  0  0  0  0  0
    1.2612   -1.1303    0.0000 H   0  0  0  0  0  0  0  0  0  0  0  0
    3.4485    5.0593    0.0000 H   0  0  0  0  0  0  0  0  0  0  0  0
   -2.1532    2.7749    0.0000 H   0  0  0  0  0  0  0  0  0  0  0  0
   -0.9467    5.0488    0.0000 H   0  0  0  0  0  0  0  0  0  0  0  0
    2.1710   -3.1597    0.0000 H   0  0  0  0  0  0  0  0  0  0  0  0
    6.4400    1.8364    0.0000 H   0  0  0  0  0  0  0  0  0  0  0  0
    4.2518   -1.9585    0.0000 H   0  0  0  0  0  0  0  0  0  0  0  0
   -1.3649   -1.1066    0.0000 H   0  0  0  0  0  0  0  0  0  0  0  0
    2.5310   -5.4061    0.0000 H   0  0  0  0  0  0  0  0  0  0  0  0
    0.8516   -4.9782    0.0000 H   0  0  0  0  0  0  0  0  0  0  0  0
    6.4424   -3.2086    0.0000 H   0  0  0  0  0  0  0  0  0  0  0  0
    2.0380    7.3006    0.0000 H   0  0  0  0  0  0  0  0  0  0  0  0
   -2.3065   -3.1251    0.0000 H   0  0  0  0  0  0  0  0  0  0  0  0
   -2.6859   -0.3495    0.0000 H   0  0  0  0  0  0  0  0  0  0  0  0
   -3.6116   -1.9550    0.0000 H   0  0  0  0  0  0  0  0  0  0  0  0
   -3.6123   -0.8850    0.0000 H   0  0  0  0  0  0  0  0  0  0  0  0
   -0.9267   -6.4049    0.0000 H   0  0  0  0  0  0  0  0  0  0  0  0
    9.8409    0.3655    0.0000 H   0  0  0  0  0  0  0  0  0  0  0  0
   -3.5335   -3.9212    0.0000 H   0  0  0  0  0  0  0  0  0  0  0  0
    9.0202   -3.0900    0.0000 H   0  0  0  0  0  0  0  0  0  0  0  0
  1  2  2  0  0  0  0
  2  3  1  0  0  0  0
  2  4  1  0  0  0  0
  3  5  1  0  0  0  0
  3  6  2  0  0  0  0
  4  7  2  0  0  0  0
  4  8  1  0  0  0  0
  6 10  1  0  0  0  0
  6 11  1  0  0  0  0
  7 12  1  0  0  0  0
  7 10  1  0  0  0  0
  8 13  1  0  0  0  0
  8 14  2  0  0  0  0
  9  5  1  0  0  0  0
  9 15  1  0  0  0  0
  9 16  1  0  0  0  0
  9 33  1  6  0  0  0
 11 17  2  0  0  0  0
 11 18  1  0  0  0  0
 12 19  2  0  0  0  0
 12 34  1  0  0  0  0
 13 35  1  0  0  0  0
 14 19  1  0  0  0  0
 14 36  1  0  0  0  0
 15 20  1  0  0  0  0
 16 21  1  0  0  0  0
 16 22  1  0  0  0  0
 16 37  1  1  0  0  0
 17 23  1  0  0  0  0
 17 38  1  0  0  0  0
 18 24  2  0  0  0  0
 18 39  1  0  0  0  0
 19 25  1  0  0  0  0
 20 26  1  0  0  0  0
 20 27  1  0  0  0  0
 20 40  1  1  0  0  0
 21 41  1  0  0  0  0
 22 28  1  0  0  0  0
 22 26  1  0  0  0  0
 22 42  1  1  0  0  0
 23 29  1  0  0  0  0
 23 30  2  0  0  0  0
 24 30  1  0  0  0  0
 24 43  1  0  0  0  0
 25 44  1  0  0  0  0
 26 31  1  0  0  0  0
 26 45  1  6  0  0  0
 27 46  1  0  0  0  0
 27 47  1  0  0  0  0
 27 48  1  0  0  0  0
 28 49  1  0  0  0  0
 29 50  1  0  0  0  0
 30 32  1  0  0  0  0
 31 51  1  0  0  0  0
 32 52  1  0  0  0  0
M  END
>  <Molecule Name>
Quercetin 3-O-rhamnoside

$$$$
Isorhamnetin
 OpenBabel02222300512D

 35 37  0  0  0  0  0  0  0  0999 V2000
    0.0000    0.0000    0.0000 O   0  0  0  0  0  0  0  0  0  0  0  0
   -0.0117    1.5097    0.0000 C   0  0  0  0  0  0  0  0  0  0  0  0
    1.2738    2.2763    0.0000 C   0  0  0  0  0  0  0  0  0  0  0  0
   -1.3210    2.2763    0.0000 C   0  0  0  0  0  0  0  0  0  0  0  0
    2.5594    1.5333    0.0000 O   0  0  0  0  0  0  0  0  0  0  0  0
    1.2620    3.7861    0.0000 C   0  0  0  0  0  0  0  0  0  0  0  0
   -1.3328    3.7861    0.0000 C   0  0  0  0  0  0  0  0  0  0  0  0
   -2.6302    1.5333    0.0000 C   0  0  0  0  0  0  0  0  0  0  0  0
   -0.0471    4.5409    0.0000 O   0  0  0  0  0  0  0  0  0  0  0  0
    2.5476    4.5409    0.0000 C   0  0  0  0  0  0  0  0  0  0  0  0
   -2.6420    4.5409    0.0000 C   0  0  0  0  0  0  0  0  0  0  0  0
   -2.6420    0.0471    0.0000 O   0  0  0  0  0  0  0  0  0  0  0  0
   -3.9394    2.2999    0.0000 C   0  0  0  0  0  0  0  0  0  0  0  0
    3.8333    3.8097    0.0000 C   0  0  0  0  0  0  0  0  0  0  0  0
    2.5358    6.0507    0.0000 C   0  0  0  0  0  0  0  0  0  0  0  0
   -3.9512    3.8097    0.0000 C   0  0  0  0  0  0  0  0  0  0  0  0
    5.1189    4.5645    0.0000 C   0  0  0  0  0  0  0  0  0  0  0  0
    3.8215    6.8173    0.0000 C   0  0  0  0  0  0  0  0  0  0  0  0
   -5.2604    4.5645    0.0000 O   0  0  0  0  0  0  0  0  0  0  0  0
    6.4045    3.8333    0.0000 O   0  0  0  0  0  0  0  0  0  0  0  0
    5.1071    6.0743    0.0000 C   0  0  0  0  0  0  0  0  0  0  0  0
    7.6901    4.5881    0.0000 C   0  0  0  0  0  0  0  0  0  0  0  0
    6.3927    6.8409    0.0000 O   0  0  0  0  0  0  0  0  0  0  0  0
    2.5590    0.5963    0.0000 H   0  0  0  0  0  0  0  0  0  0  0  0
   -2.6350    5.5729    0.0000 H   0  0  0  0  0  0  0  0  0  0  0  0
   -3.4572   -0.4149    0.0000 H   0  0  0  0  0  0  0  0  0  0  0  0
   -4.8327    1.7831    0.0000 H   0  0  0  0  0  0  0  0  0  0  0  0
    3.8404    2.7777    0.0000 H   0  0  0  0  0  0  0  0  0  0  0  0
    1.6365    6.5569    0.0000 H   0  0  0  0  0  0  0  0  0  0  0  0
    3.8145    7.8493    0.0000 H   0  0  0  0  0  0  0  0  0  0  0  0
   -5.2610    5.5015    0.0000 H   0  0  0  0  0  0  0  0  0  0  0  0
    8.6206    4.0599    0.0000 H   0  0  0  0  0  0  0  0  0  0  0  0
    7.6823    5.6581    0.0000 H   0  0  0  0  0  0  0  0  0  0  0  0
    8.6128    5.1298    0.0000 H   0  0  0  0  0  0  0  0  0  0  0  0
    7.2107    6.3839    0.0000 H   0  0  0  0  0  0  0  0  0  0  0  0
  1  2  2  0  0  0  0
  2  3  1  0  0  0  0
  2  4  1  0  0  0  0
  3  5  1  0  0  0  0
  3  6  2  0  0  0  0
  4  7  2  0  0  0  0
  4  8  1  0  0  0  0
  5 24  1  0  0  0  0
  6  9  1  0  0  0  0
  6 10  1  0  0  0  0
  7 11  1  0  0  0  0
  7  9  1  0  0  0  0
  8 12  1  0  0  0  0
  8 13  2  0  0  0  0
 10 14  2  0  0  0  0
 10 15  1  0  0  0  0
 11 16  2  0  0  0  0
 11 25  1  0  0  0  0
 12 26  1  0  0  0  0
 13 16  1  0  0  0  0
 13 27  1  0  0  0  0
 14 17  1  0  0  0  0
 14 28  1  0  0  0  0
 15 18  2  0  0  0  0
 15 29  1  0  0  0  0
 16 19  1  0  0  0  0
 17 20  1  0  0  0  0
 17 21  2  0  0  0  0
 18 21  1  0  0  0  0
 18 30  1  0  0  0  0
 19 31  1  0  0  0  0
 20 22  1  0  0  0  0
 21 23  1  0  0  0  0
 22 32  1  0  0  0  0
 22 33  1  0  0  0  0
 22 34  1  0  0  0  0
 23 35  1  0  0  0  0
M  END
>  <Molecule Name>
Isorhamnetin

$$$$
Isorhamnetin-3-O-rutioside
 OpenBabel02222300512D

 76 80  0  0  0  0  0  0  0  0999 V2000
    0.0000    0.0000    0.0000 O   0  0  0  0  0  0  0  0  0  0  0  0
   -0.0118    1.5123    0.0000 C   0  0  0  0  0  0  0  0  0  0  0  0
    1.2760    2.2685    0.0000 C   0  0  0  0  0  0  0  0  0  0  0  0
   -1.3232    2.2685    0.0000 C   0  0  0  0  0  0  0  0  0  0  0  0
    2.5638    1.5359    0.0000 O   0  0  0  0  0  0  0  0  0  0  0  0
    1.2642    3.7808    0.0000 C   0  0  0  0  0  0  0  0  0  0  0  0
   -1.3351    3.7808    0.0000 C   0  0  0  0  0  0  0  0  0  0  0  0
   -2.6347    1.5359    0.0000 C   0  0  0  0  0  0  0  0  0  0  0  0
    2.5520    0.0472    0.0000 C   0  0  2  0  0  0  0  0  0  0  0  0
   -0.0472    4.5370    0.0000 O   0  0  0  0  0  0  0  0  0  0  0  0
    2.5520    4.5370    0.0000 C   0  0  0  0  0  0  0  0  0  0  0  0
   -2.6465    4.5370    0.0000 C   0  0  0  0  0  0  0  0  0  0  0  0
   -2.6465    0.0472    0.0000 O   0  0  0  0  0  0  0  0  0  0  0  0
   -3.9462    2.2921    0.0000 C   0  0  0  0  0  0  0  0  0  0  0  0
    1.2405   -0.6852    0.0000 O   0  0  0  0  0  0  0  0  0  0  0  0
    3.8399   -0.6852    0.0000 C   0  0  2  0  0  0  0  0  0  0  0  0
    3.8399    3.8044    0.0000 C   0  0  0  0  0  0  0  0  0  0  0  0
    2.5402    6.0493    0.0000 C   0  0  0  0  0  0  0  0  0  0  0  0
   -3.9580    3.8044    0.0000 C   0  0  0  0  0  0  0  0  0  0  0  0
    1.2287   -2.1739    0.0000 C   0  0  1  0  0  0  0  0  0  0  0  0
    5.1277    0.0708    0.0000 O   0  0  0  0  0  0  0  0  0  0  0  0
    3.8281   -2.1739    0.0000 C   0  0  2  0  0  0  0  0  0  0  0  0
    5.1277    4.5606    0.0000 C   0  0  0  0  0  0  0  0  0  0  0  0
    3.8281    6.8173    0.0000 C   0  0  0  0  0  0  0  0  0  0  0  0
   -5.2695    4.5606    0.0000 O   0  0  0  0  0  0  0  0  0  0  0  0
    2.5166   -2.9183    0.0000 C   0  0  2  0  0  0  0  0  0  0  0  0
   -0.0827   -2.9183    0.0000 C   0  0  0  0  0  0  0  0  0  0  0  0
    5.1159   -2.9183    0.0000 O   0  0  0  0  0  0  0  0  0  0  0  0
    6.4156    3.8281    0.0000 O   0  0  0  0  0  0  0  0  0  0  0  0
    5.1159    6.0729    0.0000 C   0  0  0  0  0  0  0  0  0  0  0  0
    2.5048   -4.4070    0.0000 O   0  0  0  0  0  0  0  0  0  0  0  0
   -1.3941   -2.1503    0.0000 O   0  0  0  0  0  0  0  0  0  0  0  0
    7.7034    4.5842    0.0000 C   0  0  0  0  0  0  0  0  0  0  0  0
    6.4038    6.8409    0.0000 O   0  0  0  0  0  0  0  0  0  0  0  0
   -2.7056   -2.8947    0.0000 C   0  0  2  0  0  0  0  0  0  0  0  0
   -4.0171   -2.1267    0.0000 O   0  0  0  0  0  0  0  0  0  0  0  0
   -2.7174   -4.3834    0.0000 C   0  0  2  0  0  0  0  0  0  0  0  0
   -5.3286   -2.8710    0.0000 C   0  0  2  0  0  0  0  0  0  0  0  0
   -1.4296   -5.1159    0.0000 O   0  0  0  0  0  0  0  0  0  0  0  0
   -4.0289   -5.1159    0.0000 C   0  0  1  0  0  0  0  0  0  0  0  0
   -5.3404   -4.3597    0.0000 C   0  0  1  0  0  0  0  0  0  0  0  0
   -6.6401   -2.1030    0.0000 C   0  0  0  0  0  0  0  0  0  0  0  0
   -4.0407   -6.6046    0.0000 O   0  0  0  0  0  0  0  0  0  0  0  0
   -6.6519   -5.0923    0.0000 O   0  0  0  0  0  0  0  0  0  0  0  0
    1.6314    0.5925    0.0000 H   0  0  0  0  0  0  0  0  0  0  0  0
   -2.6395    5.5690    0.0000 H   0  0  0  0  0  0  0  0  0  0  0  0
   -3.4617   -0.4149    0.0000 H   0  0  0  0  0  0  0  0  0  0  0  0
   -4.8378    1.7724    0.0000 H   0  0  0  0  0  0  0  0  0  0  0  0
    3.8325    0.3848    0.0000 H   0  0  0  0  0  0  0  0  0  0  0  0
    3.8470    2.7724    0.0000 H   0  0  0  0  0  0  0  0  0  0  0  0
    1.6409    6.5555    0.0000 H   0  0  0  0  0  0  0  0  0  0  0  0
    0.3062   -1.6319    0.0000 H   0  0  0  0  0  0  0  0  0  0  0  0
    5.9712   -0.4081    0.0000 H   0  0  0  0  0  0  0  0  0  0  0  0
    4.7570   -1.6428    0.0000 H   0  0  0  0  0  0  0  0  0  0  0  0
    3.8211    7.8493    0.0000 H   0  0  0  0  0  0  0  0  0  0  0  0
   -5.2700    5.4976    0.0000 H   0  0  0  0  0  0  0  0  0  0  0  0
    1.5877   -3.4494    0.0000 H   0  0  0  0  0  0  0  0  0  0  0  0
   -0.0899   -3.9883    0.0000 H   0  0  0  0  0  0  0  0  0  0  0  0
   -1.0128   -3.4473    0.0000 H   0  0  0  0  0  0  0  0  0  0  0  0
    5.1154   -3.8883    0.0000 H   0  0  0  0  0  0  0  0  0  0  0  0
    1.6609   -4.8853    0.0000 H   0  0  0  0  0  0  0  0  0  0  0  0
    8.6339    4.0560    0.0000 H   0  0  0  0  0  0  0  0  0  0  0  0
    7.6956    5.6542    0.0000 H   0  0  0  0  0  0  0  0  0  0  0  0
    8.6261    5.1260    0.0000 H   0  0  0  0  0  0  0  0  0  0  0  0
    7.2218    6.3839    0.0000 H   0  0  0  0  0  0  0  0  0  0  0  0
   -2.6984   -1.8247    0.0000 H   0  0  0  0  0  0  0  0  0  0  0  0
   -1.7904   -3.8491    0.0000 H   0  0  0  0  0  0  0  0  0  0  0  0
   -5.3213   -1.8010    0.0000 H   0  0  0  0  0  0  0  0  0  0  0  0
   -1.4234   -6.0859    0.0000 H   0  0  0  0  0  0  0  0  0  0  0  0
   -3.1082   -5.6611    0.0000 H   0  0  0  0  0  0  0  0  0  0  0  0
   -6.2611   -3.8145    0.0000 H   0  0  0  0  0  0  0  0  0  0  0  0
   -6.6335   -1.0330    0.0000 H   0  0  0  0  0  0  0  0  0  0  0  0
   -7.5700   -2.6323    0.0000 H   0  0  0  0  0  0  0  0  0  0  0  0
   -7.5634   -1.5623    0.0000 H   0  0  0  0  0  0  0  0  0  0  0  0
   -4.8846   -7.0829    0.0000 H   0  0  0  0  0  0  0  0  0  0  0  0
   -7.4850   -4.5954    0.0000 H   0  0  0  0  0  0  0  0  0  0  0  0
  1  2  2  0  0  0  0
  2  3  1  0  0  0  0
  2  4  1  0  0  0  0
  3  5  1  0  0  0  0
  3  6  2  0  0  0  0
  4  7  2  0  0  0  0
  4  8  1  0  0  0  0
  6 10  1  0  0  0  0
  6 11  1  0  0  0  0
  7 12  1  0  0  0  0
  7 10  1  0  0  0  0
  8 13  1  0  0  0  0
  8 14  2  0  0  0  0
  9  5  1  0  0  0  0
  9 15  1  0  0  0  0
  9 16  1  0  0  0  0
  9 45  1  6  0  0  0
 11 17  2  0  0  0  0
 11 18  1  0  0  0  0
 12 19  2  0  0  0  0
 12 46  1  0  0  0  0
 13 47  1  0  0  0  0
 14 19  1  0  0  0  0
 14 48  1  0  0  0  0
 15 20  1  0  0  0  0
 16 21  1  0  0  0  0
 16 22  1  0  0  0  0
 16 49  1  1  0  0  0
 17 23  1  0  0  0  0
 17 50  1  0  0  0  0
 18 24  2  0  0  0  0
 18 51  1  0  0  0  0
 19 25  1  0  0  0  0
 20 26  1  0  0  0  0
 20 27  1  0  0  0  0
 20 52  1  6  0  0  0
 21 53  1  0  0  0  0
 22 28  1  0  0  0  0
 22 26  1  0  0  0  0
 22 54  1  6  0  0  0
 23 29  1  0  0  0  0
 23 30  2  0  0  0  0
 24 30  1  0  0  0  0
 24 55  1  0  0  0  0
 25 56  1  0  0  0  0
 26 31  1  0  0  0  0
 26 57  1  1  0  0  0
 27 32  1  0  0  0  0
 27 58  1  0  0  0  0
 27 59  1  0  0  0  0
 28 60  1  0  0  0  0
 29 33  1  0  0  0  0
 30 34  1  0  0  0  0
 31 61  1  0  0  0  0
 33 62  1  0  0  0  0
 33 63  1  0  0  0  0
 33 64  1  0  0  0  0
 34 65  1  0  0  0  0
 35 32  1  0  0  0  0
 35 36  1  0  0  0  0
 35 37  1  0  0  0  0
 35 66  1  6  0  0  0
 36 38  1  0  0  0  0
 37 39  1  0  0  0  0
 37 40  1  0  0  0  0
 37 67  1  1  0  0  0
 38 41  1  0  0  0  0
 38 42  1  0  0  0  0
 38 68  1  1  0  0  0
 39 69  1  0  0  0  0
 40 43  1  0  0  0  0
 40 41  1  0  0  0  0
 40 70  1  1  0  0  0
 41 44  1  0  0  0  0
 41 71  1  6  0  0  0
 42 72  1  0  0  0  0
 42 73  1  0  0  0  0
 42 74  1  0  0  0  0
 43 75  1  0  0  0  0
 44 76  1  0  0  0  0
M  END
>  <Molecule Name>
Isorhamnetin-3-O-rutioside

$$$$
Isorhamnetin-3-O-glucoside
 OpenBabel02222300512D

 56 59  0  0  0  0  0  0  0  0999 V2000
    0.0000    0.0000    0.0000 O   0  0  0  0  0  0  0  0  0  0  0  0
   -0.0118    1.5131    0.0000 C   0  0  0  0  0  0  0  0  0  0  0  0
    1.2766    2.2696    0.0000 C   0  0  0  0  0  0  0  0  0  0  0  0
   -1.3239    2.2696    0.0000 C   0  0  0  0  0  0  0  0  0  0  0  0
    2.5651    1.5367    0.0000 O   0  0  0  0  0  0  0  0  0  0  0  0
    1.2648    3.7827    0.0000 C   0  0  0  0  0  0  0  0  0  0  0  0
   -1.3357    3.7827    0.0000 C   0  0  0  0  0  0  0  0  0  0  0  0
   -2.6361    1.5367    0.0000 C   0  0  0  0  0  0  0  0  0  0  0  0
    2.5533    0.0472    0.0000 C   0  0  2  0  0  0  0  0  0  0  0  0
   -0.0472    4.5393    0.0000 O   0  0  0  0  0  0  0  0  0  0  0  0
    2.5533    4.5393    0.0000 C   0  0  0  0  0  0  0  0  0  0  0  0
   -2.6479    4.5393    0.0000 C   0  0  0  0  0  0  0  0  0  0  0  0
   -2.6479    0.0472    0.0000 O   0  0  0  0  0  0  0  0  0  0  0  0
   -3.9482    2.2932    0.0000 C   0  0  0  0  0  0  0  0  0  0  0  0
    1.2412   -0.6974    0.0000 O   0  0  0  0  0  0  0  0  0  0  0  0
    3.8418   -0.6974    0.0000 C   0  0  2  0  0  0  0  0  0  0  0  0
    3.8418    3.8063    0.0000 C   0  0  0  0  0  0  0  0  0  0  0  0
    2.5415    6.0524    0.0000 C   0  0  0  0  0  0  0  0  0  0  0  0
   -3.9600    3.8063    0.0000 C   0  0  0  0  0  0  0  0  0  0  0  0
    1.2293   -2.1869    0.0000 C   0  0  1  0  0  0  0  0  0  0  0  0
    5.1303    0.0591    0.0000 O   0  0  0  0  0  0  0  0  0  0  0  0
    3.8300   -2.1869    0.0000 C   0  0  2  0  0  0  0  0  0  0  0  0
    5.1303    4.5629    0.0000 C   0  0  0  0  0  0  0  0  0  0  0  0
    3.8300    6.8089    0.0000 C   0  0  0  0  0  0  0  0  0  0  0  0
   -5.2722    4.5629    0.0000 O   0  0  0  0  0  0  0  0  0  0  0  0
    2.5178   -2.9316    0.0000 C   0  0  2  0  0  0  0  0  0  0  0  0
   -0.0827   -2.9316    0.0000 C   0  0  0  0  0  0  0  0  0  0  0  0
    5.1185   -2.9316    0.0000 O   0  0  0  0  0  0  0  0  0  0  0  0
    6.4188    3.8300    0.0000 O   0  0  0  0  0  0  0  0  0  0  0  0
    5.1185    6.0760    0.0000 C   0  0  0  0  0  0  0  0  0  0  0  0
    2.5060   -4.4210    0.0000 O   0  0  0  0  0  0  0  0  0  0  0  0
   -1.3948   -2.1632    0.0000 O   0  0  0  0  0  0  0  0  0  0  0  0
    7.7073    4.5865    0.0000 C   0  0  0  0  0  0  0  0  0  0  0  0
    6.4070    6.8326    0.0000 O   0  0  0  0  0  0  0  0  0  0  0  0
    1.6308    0.5893    0.0000 H   0  0  0  0  0  0  0  0  0  0  0  0
   -2.6409    5.5713    0.0000 H   0  0  0  0  0  0  0  0  0  0  0  0
   -3.4631   -0.4149    0.0000 H   0  0  0  0  0  0  0  0  0  0  0  0
   -4.8398    1.7735    0.0000 H   0  0  0  0  0  0  0  0  0  0  0  0
    3.8381    0.3726    0.0000 H   0  0  0  0  0  0  0  0  0  0  0  0
    3.8489    2.7743    0.0000 H   0  0  0  0  0  0  0  0  0  0  0  0
    1.6439    6.5616    0.0000 H   0  0  0  0  0  0  0  0  0  0  0  0
    0.3068   -1.6448    0.0000 H   0  0  0  0  0  0  0  0  0  0  0  0
    5.9739   -0.4198    0.0000 H   0  0  0  0  0  0  0  0  0  0  0  0
    4.7589   -1.6558    0.0000 H   0  0  0  0  0  0  0  0  0  0  0  0
    3.8229    7.8409    0.0000 H   0  0  0  0  0  0  0  0  0  0  0  0
   -5.2727    5.4999    0.0000 H   0  0  0  0  0  0  0  0  0  0  0  0
    1.5889   -3.4627    0.0000 H   0  0  0  0  0  0  0  0  0  0  0  0
   -0.0899   -4.0016    0.0000 H   0  0  0  0  0  0  0  0  0  0  0  0
   -1.0128   -3.4606    0.0000 H   0  0  0  0  0  0  0  0  0  0  0  0
    5.1181   -3.9016    0.0000 H   0  0  0  0  0  0  0  0  0  0  0  0
    1.6621   -4.8993    0.0000 H   0  0  0  0  0  0  0  0  0  0  0  0
   -1.3888   -1.1932    0.0000 H   0  0  0  0  0  0  0  0  0  0  0  0
    8.6378    4.0583    0.0000 H   0  0  0  0  0  0  0  0  0  0  0  0
    7.6995    5.6565    0.0000 H   0  0  0  0  0  0  0  0  0  0  0  0
    8.6300    5.1282    0.0000 H   0  0  0  0  0  0  0  0  0  0  0  0
    7.2219    6.3701    0.0000 H   0  0  0  0  0  0  0  0  0  0  0  0
  1  2  2  0  0  0  0
  2  3  1  0  0  0  0
  2  4  1  0  0  0  0
  3  5  1  0  0  0  0
  3  6  2  0  0  0  0
  4  7  2  0  0  0  0
  4  8  1  0  0  0  0
  6 10  1  0  0  0  0
  6 11  1  0  0  0  0
  7 12  1  0  0  0  0
  7 10  1  0  0  0  0
  8 13  1  0  0  0  0
  8 14  2  0  0  0  0
  9  5  1  0  0  0  0
  9 15  1  0  0  0  0
  9 16  1  0  0  0  0
  9 35  1  6  0  0  0
 11 17  2  0  0  0  0
 11 18  1  0  0  0  0
 12 19  2  0  0  0  0
 12 36  1  0  0  0  0
 13 37  1  0  0  0  0
 14 19  1  0  0  0  0
 14 38  1  0  0  0  0
 15 20  1  0  0  0  0
 16 21  1  0  0  0  0
 16 22  1  0  0  0  0
 16 39  1  1  0  0  0
 17 23  1  0  0  0  0
 17 40  1  0  0  0  0
 18 24  2  0  0  0  0
 18 41  1  0  0  0  0
 19 25  1  0  0  0  0
 20 26  1  0  0  0  0
 20 27  1  0  0  0  0
 20 42  1  6  0  0  0
 21 43  1  0  0  0  0
 22 28  1  0  0  0  0
 22 26  1  0  0  0  0
 22 44  1  6  0  0  0
 23 29  1  0  0  0  0
 23 30  2  0  0  0  0
 24 30  1  0  0  0  0
 24 45  1  0  0  0  0
 25 46  1  0  0  0  0
 26 31  1  0  0  0  0
 26 47  1  1  0  0  0
 27 32  1  0  0  0  0
 27 48  1  0  0  0  0
 27 49  1  0  0  0  0
 28 50  1  0  0  0  0
 29 33  1  0  0  0  0
 30 34  1  0  0  0  0
 31 51  1  0  0  0  0
 32 52  1  0  0  0  0
 33 53  1  0  0  0  0
 33 54  1  0  0  0  0
 33 55  1  0  0  0  0
 34 56  1  0  0  0  0
M  END
>  <Molecule Name>
Isorhamnetin-3-O-glucoside

$$$$
Isoorientin
 OpenBabel02222300512D

 52 55  0  0  0  0  0  0  0  0999 V2000
    0.0000    0.0000    0.0000 O   0  0  0  0  0  0  0  0  0  0  0  0
   -0.0118    1.5111    0.0000 C   0  0  0  0  0  0  0  0  0  0  0  0
   -1.3222    2.2666    0.0000 C   0  0  0  0  0  0  0  0  0  0  0  0
    1.2749    2.2666    0.0000 C   0  0  0  0  0  0  0  0  0  0  0  0
   -2.6326    1.5347    0.0000 C   0  0  0  0  0  0  0  0  0  0  0  0
   -1.3340    3.7777    0.0000 C   0  0  0  0  0  0  0  0  0  0  0  0
    1.2631    3.7777    0.0000 C   0  0  0  0  0  0  0  0  0  0  0  0
   -2.6444    0.0472    0.0000 O   0  0  0  0  0  0  0  0  0  0  0  0
   -3.9430    2.2902    0.0000 C   0  0  0  0  0  0  0  0  0  0  0  0
   -0.0472    4.5333    0.0000 O   0  0  0  0  0  0  0  0  0  0  0  0
   -2.6444    4.5333    0.0000 C   0  0  0  0  0  0  0  0  0  0  0  0
    2.5499    4.5333    0.0000 C   0  0  0  0  0  0  0  0  0  0  0  0
   -3.9548    3.8013    0.0000 C   0  0  0  0  0  0  0  0  0  0  0  0
   -5.2534    1.5583    0.0000 C   0  0  2  0  0  0  0  0  0  0  0  0
    3.8368    3.8013    0.0000 C   0  0  0  0  0  0  0  0  0  0  0  0
    2.5381    6.0444    0.0000 C   0  0  0  0  0  0  0  0  0  0  0  0
   -5.2652    4.5569    0.0000 O   0  0  0  0  0  0  0  0  0  0  0  0
   -6.5638    2.3138    0.0000 O   0  0  0  0  0  0  0  0  0  0  0  0
   -5.2652    0.0708    0.0000 C   0  0  2  0  0  0  0  0  0  0  0  0
    5.1236    4.5569    0.0000 C   0  0  0  0  0  0  0  0  0  0  0  0
    3.8249    6.7999    0.0000 C   0  0  0  0  0  0  0  0  0  0  0  0
   -7.8743    1.5819    0.0000 C   0  0  1  0  0  0  0  0  0  0  0  0
   -3.9784   -0.6611    0.0000 O   0  0  0  0  0  0  0  0  0  0  0  0
   -6.5756   -0.6611    0.0000 C   0  0  2  0  0  0  0  0  0  0  0  0
    6.4104    3.8249    0.0000 O   0  0  0  0  0  0  0  0  0  0  0  0
    5.1118    6.0680    0.0000 C   0  0  0  0  0  0  0  0  0  0  0  0
   -7.8861    0.0944    0.0000 C   0  0  2  0  0  0  0  0  0  0  0  0
   -9.1847    2.3374    0.0000 C   0  0  0  0  0  0  0  0  0  0  0  0
   -6.5874   -2.1486    0.0000 O   0  0  0  0  0  0  0  0  0  0  0  0
    6.3986    6.8236    0.0000 O   0  0  0  0  0  0  0  0  0  0  0  0
   -9.1965   -0.6374    0.0000 O   0  0  0  0  0  0  0  0  0  0  0  0
  -10.4951    1.6055    0.0000 O   0  0  0  0  0  0  0  0  0  0  0  0
    2.1725    1.7574    0.0000 H   0  0  0  0  0  0  0  0  0  0  0  0
   -3.4596   -0.4148    0.0000 H   0  0  0  0  0  0  0  0  0  0  0  0
   -2.6374    5.5653    0.0000 H   0  0  0  0  0  0  0  0  0  0  0  0
   -5.2461    2.6283    0.0000 H   0  0  0  0  0  0  0  0  0  0  0  0
    3.8439    2.7693    0.0000 H   0  0  0  0  0  0  0  0  0  0  0  0
    1.6405    6.5536    0.0000 H   0  0  0  0  0  0  0  0  0  0  0  0
   -5.2657    5.4939    0.0000 H   0  0  0  0  0  0  0  0  0  0  0  0
   -4.3382    0.6051    0.0000 H   0  0  0  0  0  0  0  0  0  0  0  0
    3.8178    7.8319    0.0000 H   0  0  0  0  0  0  0  0  0  0  0  0
   -7.8670    2.6519    0.0000 H   0  0  0  0  0  0  0  0  0  0  0  0
   -3.9721   -1.6311    0.0000 H   0  0  0  0  0  0  0  0  0  0  0  0
   -5.6549   -1.2063    0.0000 H   0  0  0  0  0  0  0  0  0  0  0  0
    6.4164    2.8879    0.0000 H   0  0  0  0  0  0  0  0  0  0  0  0
   -8.8067    0.6397    0.0000 H   0  0  0  0  0  0  0  0  0  0  0  0
   -9.1774    3.4074    0.0000 H   0  0  0  0  0  0  0  0  0  0  0  0
  -10.1057    2.8821    0.0000 H   0  0  0  0  0  0  0  0  0  0  0  0
   -7.4313   -2.6269    0.0000 H   0  0  0  0  0  0  0  0  0  0  0  0
    7.2135    6.3611    0.0000 H   0  0  0  0  0  0  0  0  0  0  0  0
  -10.0295   -0.1404    0.0000 H   0  0  0  0  0  0  0  0  0  0  0  0
  -11.3282    2.1024    0.0000 H   0  0  0  0  0  0  0  0  0  0  0  0
  1  2  2  0  0  0  0
  2  3  1  0  0  0  0
  2  4  1  0  0  0  0
  3  5  2  0  0  0  0
  3  6  1  0  0  0  0
  4  7  2  0  0  0  0
  4 33  1  0  0  0  0
  5  8  1  0  0  0  0
  5  9  1  0  0  0  0
  6 10  1  0  0  0  0
  6 11  2  0  0  0  0
  7 12  1  0  0  0  0
  7 10  1  0  0  0  0
  8 34  1  0  0  0  0
  9 13  2  0  0  0  0
 11 13  1  0  0  0  0
 11 35  1  0  0  0  0
 12 15  2  0  0  0  0
 12 16  1  0  0  0  0
 13 17  1  0  0  0  0
 14  9  1  0  0  0  0
 14 18  1  0  0  0  0
 14 19  1  0  0  0  0
 14 36  1  6  0  0  0
 15 20  1  0  0  0  0
 15 37  1  0  0  0  0
 16 21  2  0  0  0  0
 16 38  1  0  0  0  0
 17 39  1  0  0  0  0
 18 22  1  0  0  0  0
 19 23  1  0  0  0  0
 19 24  1  0  0  0  0
 19 40  1  1  0  0  0
 20 25  1  0  0  0  0
 20 26  2  0  0  0  0
 21 26  1  0  0  0  0
 21 41  1  0  0  0  0
 22 27  1  0  0  0  0
 22 28  1  0  0  0  0
 22 42  1  6  0  0  0
 23 43  1  0  0  0  0
 24 29  1  0  0  0  0
 24 27  1  0  0  0  0
 24 44  1  6  0  0  0
 25 45  1  0  0  0  0
 26 30  1  0  0  0  0
 27 31  1  0  0  0  0
 27 46  1  1  0  0  0
 28 32  1  0  0  0  0
 28 47  1  0  0  0  0
 28 48  1  0  0  0  0
 29 49  1  0  0  0  0
 30 50  1  0  0  0  0
 31 51  1  0  0  0  0
 32 52  1  0  0  0  0
M  END
>  <Molecule Name>
Isoorientin

$$$$
Calycosin (3-hydroxyl-formononetin)
 OpenBabel02222300512D

 33 35  0  0  0  0  0  0  0  0999 V2000
    0.0000    0.0000    0.0000 O   0  0  0  0  0  0  0  0  0  0  0  0
   -0.0117    1.5084    0.0000 C   0  0  0  0  0  0  0  0  0  0  0  0
    1.2727    2.2744    0.0000 C   0  0  0  0  0  0  0  0  0  0  0  0
   -1.3199    2.2744    0.0000 C   0  0  0  0  0  0  0  0  0  0  0  0
    2.5573    1.5320    0.0000 C   0  0  0  0  0  0  0  0  0  0  0  0
    1.2609    3.7829    0.0000 C   0  0  0  0  0  0  0  0  0  0  0  0
   -1.3316    3.7829    0.0000 C   0  0  0  0  0  0  0  0  0  0  0  0
   -2.6280    1.5320    0.0000 C   0  0  0  0  0  0  0  0  0  0  0  0
    3.8418    2.2980    0.0000 C   0  0  0  0  0  0  0  0  0  0  0  0
    2.5455    0.0471    0.0000 C   0  0  0  0  0  0  0  0  0  0  0  0
   -0.0471    4.5489    0.0000 O   0  0  0  0  0  0  0  0  0  0  0  0
   -2.6398    4.5489    0.0000 C   0  0  0  0  0  0  0  0  0  0  0  0
   -3.9361    2.2980    0.0000 C   0  0  0  0  0  0  0  0  0  0  0  0
    5.1264    1.5555    0.0000 C   0  0  0  0  0  0  0  0  0  0  0  0
    3.8300   -0.6953    0.0000 C   0  0  0  0  0  0  0  0  0  0  0  0
   -3.9479    3.8065    0.0000 C   0  0  0  0  0  0  0  0  0  0  0  0
    6.4109    2.3216    0.0000 O   0  0  0  0  0  0  0  0  0  0  0  0
    5.1146    0.0707    0.0000 C   0  0  0  0  0  0  0  0  0  0  0  0
   -5.2560    4.5725    0.0000 O   0  0  0  0  0  0  0  0  0  0  0  0
    6.3991   -0.6717    0.0000 O   0  0  0  0  0  0  0  0  0  0  0  0
    7.6837    0.0942    0.0000 C   0  0  0  0  0  0  0  0  0  0  0  0
    2.1542    4.2996    0.0000 H   0  0  0  0  0  0  0  0  0  0  0  0
   -2.6350    0.5000    0.0000 H   0  0  0  0  0  0  0  0  0  0  0  0
    3.8348    3.3300    0.0000 H   0  0  0  0  0  0  0  0  0  0  0  0
    1.6496   -0.4651    0.0000 H   0  0  0  0  0  0  0  0  0  0  0  0
   -2.6328    5.5809    0.0000 H   0  0  0  0  0  0  0  0  0  0  0  0
   -4.8294    1.7813    0.0000 H   0  0  0  0  0  0  0  0  0  0  0  0
    3.8370   -1.7273    0.0000 H   0  0  0  0  0  0  0  0  0  0  0  0
    7.2289    1.8647    0.0000 H   0  0  0  0  0  0  0  0  0  0  0  0
   -5.2502    5.5095    0.0000 H   0  0  0  0  0  0  0  0  0  0  0  0
    8.6178   -0.4277    0.0000 H   0  0  0  0  0  0  0  0  0  0  0  0
    7.6687    1.1641    0.0000 H   0  0  0  0  0  0  0  0  0  0  0  0
    8.6027    0.6422    0.0000 H   0  0  0  0  0  0  0  0  0  0  0  0
  1  2  2  0  0  0  0
  2  3  1  0  0  0  0
  2  4  1  0  0  0  0
  3  5  1  0  0  0  0
  3  6  2  0  0  0  0
  4  7  2  0  0  0  0
  4  8  1  0  0  0  0
  5  9  2  0  0  0  0
  5 10  1  0  0  0  0
  6 11  1  0  0  0  0
  6 22  1  0  0  0  0
  7 12  1  0  0  0  0
  7 11  1  0  0  0  0
  8 13  2  0  0  0  0
  8 23  1  0  0  0  0
  9 14  1  0  0  0  0
  9 24  1  0  0  0  0
 10 15  2  0  0  0  0
 10 25  1  0  0  0  0
 12 16  2  0  0  0  0
 12 26  1  0  0  0  0
 13 16  1  0  0  0  0
 13 27  1  0  0  0  0
 14 17  1  0  0  0  0
 14 18  2  0  0  0  0
 15 18  1  0  0  0  0
 15 28  1  0  0  0  0
 16 19  1  0  0  0  0
 17 29  1  0  0  0  0
 18 20  1  0  0  0  0
 19 30  1  0  0  0  0
 20 21  1  0  0  0  0
 21 31  1  0  0  0  0
 21 32  1  0  0  0  0
 21 33  1  0  0  0  0
M  END
>  <Molecule Name>
Calycosin (3-hydroxyl-formononetin)

$$$$
Stigmasterol
 OpenBabel02222300512D

 78 81  0  0  0  0  0  0  0  0999 V2000
    0.0000    0.0000    0.0000 O   0  0  0  0  0  0  0  0  0  0  0  0
    1.2891    0.7687    0.0000 C   0  0  2  0  0  0  0  0  0  0  0  0
    2.5783    0.0236    0.0000 C   0  0  0  0  0  0  0  0  0  0  0  0
    1.2773    2.2826    0.0000 C   0  0  0  0  0  0  0  0  0  0  0  0
    3.8675    0.7924    0.0000 C   0  0  0  0  0  0  0  0  0  0  0  0
    2.5665    3.0396    0.0000 C   0  0  0  0  0  0  0  0  0  0  0  0
    5.1567    0.0473    0.0000 C   0  0  0  0  0  0  0  0  0  0  0  0
    3.8557    2.3063    0.0000 C   0  0  2  0  0  0  0  0  0  0  0  0
    6.4459    0.8160    0.0000 C   0  0  0  0  0  0  0  0  0  0  0  0
    5.1449    3.0633    0.0000 C   0  0  2  0  0  0  0  0  0  0  0  0
    3.8439    3.8202    0.0000 C   0  0  0  0  0  0  0  0  0  0  0  0
    6.4341    2.3300    0.0000 C   0  0  2  0  0  0  0  0  0  0  0  0
    5.1331    4.5772    0.0000 C   0  0  0  0  0  0  0  0  0  0  0  0
    7.7233    3.0869    0.0000 C   0  0  1  0  0  0  0  0  0  0  0  0
    6.4222    5.3341    0.0000 C   0  0  0  0  0  0  0  0  0  0  0  0
    7.7114    4.6008    0.0000 C   0  0  2  0  0  0  0  0  0  0  0  0
    9.1426    2.6375    0.0000 C   0  0  0  0  0  0  0  0  0  0  0  0
    9.1307    5.0739    0.0000 C   0  0  2  0  0  0  0  0  0  0  0  0
    7.8534    6.1029    0.0000 C   0  0  0  0  0  0  0  0  0  0  0  0
   10.0178    3.8675    0.0000 C   0  0  0  0  0  0  0  0  0  0  0  0
    9.5802    6.5169    0.0000 C   0  0  1  0  0  0  0  0  0  0  0  0
   11.0349    6.8362    0.0000 C   0  0  0  0  0  0  0  0  0  0  0  0
    8.5630    7.6405    0.0000 C   0  0  0  0  0  0  0  0  0  0  0  0
   11.4844    8.2792    0.0000 C   0  0  0  0  0  0  0  0  0  0  0  0
   12.9392    8.5985    0.0000 C   0  0  2  0  0  0  0  0  0  0  0  0
   13.3886   10.0414    0.0000 C   0  0  0  0  0  0  0  0  0  0  0  0
   13.9327    7.4985    0.0000 C   0  0  0  0  0  0  0  0  0  0  0  0
   12.3714   11.1650    0.0000 C   0  0  0  0  0  0  0  0  0  0  0  0
   14.8434   10.3608    0.0000 C   0  0  0  0  0  0  0  0  0  0  0  0
   15.3874    7.8179    0.0000 C   0  0  0  0  0  0  0  0  0  0  0  0
   -0.8468    0.4731    0.0000 H   0  0  0  0  0  0  0  0  0  0  0  0
    1.2964   -0.3013    0.0000 H   0  0  0  0  0  0  0  0  0  0  0  0
    2.5856   -1.0464    0.0000 H   0  0  0  0  0  0  0  0  0  0  0  0
    3.5105   -0.5017    0.0000 H   0  0  0  0  0  0  0  0  0  0  0  0
    0.3466    2.8106    0.0000 H   0  0  0  0  0  0  0  0  0  0  0  0
    1.2693    3.3526    0.0000 H   0  0  0  0  0  0  0  0  0  0  0  0
    2.5591    4.1096    0.0000 H   0  0  0  0  0  0  0  0  0  0  0  0
    3.4896    3.5808    0.0000 H   0  0  0  0  0  0  0  0  0  0  0  0
    5.1637   -0.9847    0.0000 H   0  0  0  0  0  0  0  0  0  0  0  0
    7.3783    0.2912    0.0000 H   0  0  0  0  0  0  0  0  0  0  0  0
    7.3675    1.3597    0.0000 H   0  0  0  0  0  0  0  0  0  0  0  0
    4.2142    3.5913    0.0000 H   0  0  0  0  0  0  0  0  0  0  0  0
    4.7663    4.3624    0.0000 H   0  0  0  0  0  0  0  0  0  0  0  0
    2.9131    4.3480    0.0000 H   0  0  0  0  0  0  0  0  0  0  0  0
    3.8356    4.8902    0.0000 H   0  0  0  0  0  0  0  0  0  0  0  0
    7.3648    1.8020    0.0000 H   0  0  0  0  0  0  0  0  0  0  0  0
    4.2024    5.1052    0.0000 H   0  0  0  0  0  0  0  0  0  0  0  0
    5.1251    5.6472    0.0000 H   0  0  0  0  0  0  0  0  0  0  0  0
    7.8430    2.0236    0.0000 H   0  0  0  0  0  0  0  0  0  0  0  0
    6.4148    6.4041    0.0000 H   0  0  0  0  0  0  0  0  0  0  0  0
    7.3453    5.8753    0.0000 H   0  0  0  0  0  0  0  0  0  0  0  0
    9.4821    1.6228    0.0000 H   0  0  0  0  0  0  0  0  0  0  0  0
   10.2009    2.4799    0.0000 H   0  0  0  0  0  0  0  0  0  0  0  0
    8.8068    4.0541    0.0000 H   0  0  0  0  0  0  0  0  0  0  0  0
    8.8263    6.5483    0.0000 H   0  0  0  0  0  0  0  0  0  0  0  0
    6.9812    6.7227    0.0000 H   0  0  0  0  0  0  0  0  0  0  0  0
    7.9541    7.1682    0.0000 H   0  0  0  0  0  0  0  0  0  0  0  0
   11.0878    3.8759    0.0000 H   0  0  0  0  0  0  0  0  0  0  0  0
   10.4971    4.8241    0.0000 H   0  0  0  0  0  0  0  0  0  0  0  0
    8.5353    6.2867    0.0000 H   0  0  0  0  0  0  0  0  0  0  0  0
   11.7326    6.0758    0.0000 H   0  0  0  0  0  0  0  0  0  0  0  0
    8.8909    8.6590    0.0000 H   0  0  0  0  0  0  0  0  0  0  0  0
    7.5170    7.4152    0.0000 H   0  0  0  0  0  0  0  0  0  0  0  0
    7.8449    8.4337    0.0000 H   0  0  0  0  0  0  0  0  0  0  0  0
   10.7867    9.0396    0.0000 H   0  0  0  0  0  0  0  0  0  0  0  0
   12.2158    9.3869    0.0000 H   0  0  0  0  0  0  0  0  0  0  0  0
   13.7145   11.0606    0.0000 H   0  0  0  0  0  0  0  0  0  0  0  0
   13.6062    6.4795    0.0000 H   0  0  0  0  0  0  0  0  0  0  0  0
   14.6530    6.7072    0.0000 H   0  0  0  0  0  0  0  0  0  0  0  0
   12.6993   12.1835    0.0000 H   0  0  0  0  0  0  0  0  0  0  0  0
   11.3254   10.9397    0.0000 H   0  0  0  0  0  0  0  0  0  0  0  0
   11.6533   11.9582    0.0000 H   0  0  0  0  0  0  0  0  0  0  0  0
   15.5647    9.5704    0.0000 H   0  0  0  0  0  0  0  0  0  0  0  0
   15.1672   11.3806    0.0000 H   0  0  0  0  0  0  0  0  0  0  0  0
   15.8885   10.5903    0.0000 H   0  0  0  0  0  0  0  0  0  0  0  0
   16.1087    7.0275    0.0000 H   0  0  0  0  0  0  0  0  0  0  0  0
   15.7112    8.8377    0.0000 H   0  0  0  0  0  0  0  0  0  0  0  0
   16.4325    8.0474    0.0000 H   0  0  0  0  0  0  0  0  0  0  0  0
  1 31  1  0  0  0  0
  2  1  1  0  0  0  0
  2  3  1  0  0  0  0
  2  4  1  0  0  0  0
  2 32  1  6  0  0  0
  3  5  1  0  0  0  0
  3 33  1  0  0  0  0
  3 34  1  0  0  0  0
  4  6  1  0  0  0  0
  4 35  1  0  0  0  0
  4 36  1  0  0  0  0
  5  7  2  0  0  0  0
  5  8  1  0  0  0  0
  6  8  1  0  0  0  0
  6 37  1  0  0  0  0
  6 38  1  0  0  0  0
  7  9  1  0  0  0  0
  7 39  1  0  0  0  0
  8 10  1  0  0  0  0
  8 11  1  1  0  0  0
  9 40  1  0  0  0  0
  9 41  1  0  0  0  0
 10 13  1  0  0  0  0
 10 12  1  0  0  0  0
 10 42  1  6  0  0  0
 11 43  1  0  0  0  0
 11 44  1  0  0  0  0
 11 45  1  0  0  0  0
 12  9  1  0  0  0  0
 12 14  1  0  0  0  0
 12 46  1  1  0  0  0
 13 15  1  0  0  0  0
 13 47  1  0  0  0  0
 13 48  1  0  0  0  0
 14 16  1  0  0  0  0
 14 17  1  0  0  0  0
 14 49  1  6  0  0  0
 15 16  1  0  0  0  0
 15 50  1  0  0  0  0
 15 51  1  0  0  0  0
 16 18  1  0  0  0  0
 16 19  1  1  0  0  0
 17 20  1  0  0  0  0
 17 52  1  0  0  0  0
 17 53  1  0  0  0  0
 18 21  1  0  0  0  0
 18 20  1  0  0  0  0
 18 54  1  6  0  0  0
 19 55  1  0  0  0  0
 19 56  1  0  0  0  0
 19 57  1  0  0  0  0
 20 58  1  0  0  0  0
 20 59  1  0  0  0  0
 21 22  1  0  0  0  0
 21 23  1  0  0  0  0
 21 60  1  1  0  0  0
 22 24  2  0  0  0  0
 22 61  1  0  0  0  0
 23 62  1  0  0  0  0
 23 63  1  0  0  0  0
 23 64  1  0  0  0  0
 24 65  1  0  0  0  0
 25 24  1  0  0  0  0
 25 26  1  0  0  0  0
 25 27  1  0  0  0  0
 25 66  1  1  0  0  0
 26 28  1  0  0  0  0
 26 29  1  0  0  0  0
 26 67  1  0  0  0  0
 27 30  1  0  0  0  0
 27 68  1  0  0  0  0
 27 69  1  0  0  0  0
 28 70  1  0  0  0  0
 28 71  1  0  0  0  0
 28 72  1  0  0  0  0
 29 73  1  0  0  0  0
 29 74  1  0  0  0  0
 29 75  1  0  0  0  0
 30 76  1  0  0  0  0
 30 77  1  0  0  0  0
 30 78  1  0  0  0  0
M  END
>  <Molecule Name>
Stigmasterol

$$$$
-sitosterol
 OpenBabel02222300512D

 80 83  0  0  0  0  0  0  0  0999 V2000
    0.0000    0.0000    0.0000 O   0  0  0  0  0  0  0  0  0  0  0  0
    1.2881    0.7681    0.0000 C   0  0  2  0  0  0  0  0  0  0  0  0
    2.5762    0.0236    0.0000 C   0  0  0  0  0  0  0  0  0  0  0  0
    1.2762    2.2807    0.0000 C   0  0  0  0  0  0  0  0  0  0  0  0
    3.8643    0.7917    0.0000 C   0  0  0  0  0  0  0  0  0  0  0  0
    2.5643    3.0489    0.0000 C   0  0  0  0  0  0  0  0  0  0  0  0
    5.1524    0.0472    0.0000 C   0  0  0  0  0  0  0  0  0  0  0  0
    3.8524    2.3044    0.0000 C   0  0  2  0  0  0  0  0  0  0  0  0
    6.4405    0.8154    0.0000 C   0  0  0  0  0  0  0  0  0  0  0  0
    5.1405    3.0725    0.0000 C   0  0  2  0  0  0  0  0  0  0  0  0
    3.8406    3.8170    0.0000 C   0  0  0  0  0  0  0  0  0  0  0  0
    6.4287    2.3280    0.0000 C   0  0  2  0  0  0  0  0  0  0  0  0
    5.1287    4.5851    0.0000 C   0  0  0  0  0  0  0  0  0  0  0  0
    7.7168    3.0961    0.0000 C   0  0  1  0  0  0  0  0  0  0  0  0
    6.4168    5.3533    0.0000 C   0  0  0  0  0  0  0  0  0  0  0  0
    7.7049    4.6088    0.0000 C   0  0  2  0  0  0  0  0  0  0  0  0
    9.1349    2.6471    0.0000 C   0  0  0  0  0  0  0  0  0  0  0  0
    9.1230    5.0815    0.0000 C   0  0  2  0  0  0  0  0  0  0  0  0
    7.8467    6.1096    0.0000 C   0  0  0  0  0  0  0  0  0  0  0  0
   10.0093    3.8761    0.0000 C   0  0  0  0  0  0  0  0  0  0  0  0
    9.5721    6.5232    0.0000 C   0  0  1  0  0  0  0  0  0  0  0  0
   11.0256    6.8423    0.0000 C   0  0  0  0  0  0  0  0  0  0  0  0
    8.5558    7.6459    0.0000 C   0  0  0  0  0  0  0  0  0  0  0  0
   11.4747    8.2840    0.0000 C   0  0  0  0  0  0  0  0  0  0  0  0
   12.9283    8.6031    0.0000 C   0  0  2  0  0  0  0  0  0  0  0  0
   13.3773   10.0448    0.0000 C   0  0  0  0  0  0  0  0  0  0  0  0
   13.9209    7.5040    0.0000 C   0  0  0  0  0  0  0  0  0  0  0  0
   12.3610   11.1675    0.0000 C   0  0  0  0  0  0  0  0  0  0  0  0
   14.8309   10.3639    0.0000 C   0  0  0  0  0  0  0  0  0  0  0  0
   15.3745    7.8231    0.0000 C   0  0  0  0  0  0  0  0  0  0  0  0
   -0.8468    0.4731    0.0000 H   0  0  0  0  0  0  0  0  0  0  0  0
    1.2954   -0.3019    0.0000 H   0  0  0  0  0  0  0  0  0  0  0  0
    2.5835   -1.0464    0.0000 H   0  0  0  0  0  0  0  0  0  0  0  0
    3.5084   -0.5017    0.0000 H   0  0  0  0  0  0  0  0  0  0  0  0
    0.3437    2.8055    0.0000 H   0  0  0  0  0  0  0  0  0  0  0  0
    1.2627    3.3506    0.0000 H   0  0  0  0  0  0  0  0  0  0  0  0
    2.5570    4.1189    0.0000 H   0  0  0  0  0  0  0  0  0  0  0  0
    3.4892    3.5868    0.0000 H   0  0  0  0  0  0  0  0  0  0  0  0
    5.1595   -0.9848    0.0000 H   0  0  0  0  0  0  0  0  0  0  0  0
    7.3730    0.2906    0.0000 H   0  0  0  0  0  0  0  0  0  0  0  0
    7.3621    1.3591    0.0000 H   0  0  0  0  0  0  0  0  0  0  0  0
    4.2081    3.5973    0.0000 H   0  0  0  0  0  0  0  0  0  0  0  0
    4.7630    4.3592    0.0000 H   0  0  0  0  0  0  0  0  0  0  0  0
    2.9098    4.3448    0.0000 H   0  0  0  0  0  0  0  0  0  0  0  0
    3.8323    4.8870    0.0000 H   0  0  0  0  0  0  0  0  0  0  0  0
    7.3611    1.8032    0.0000 H   0  0  0  0  0  0  0  0  0  0  0  0
    4.1962    5.1099    0.0000 H   0  0  0  0  0  0  0  0  0  0  0  0
    5.1153    5.6550    0.0000 H   0  0  0  0  0  0  0  0  0  0  0  0
    7.8401    2.0332    0.0000 H   0  0  0  0  0  0  0  0  0  0  0  0
    6.4095    6.4233    0.0000 H   0  0  0  0  0  0  0  0  0  0  0  0
    7.3417    5.8912    0.0000 H   0  0  0  0  0  0  0  0  0  0  0  0
    9.4744    1.6324    0.0000 H   0  0  0  0  0  0  0  0  0  0  0  0
   10.1932    2.4896    0.0000 H   0  0  0  0  0  0  0  0  0  0  0  0
    8.7991    4.0617    0.0000 H   0  0  0  0  0  0  0  0  0  0  0  0
    8.8196    6.5551    0.0000 H   0  0  0  0  0  0  0  0  0  0  0  0
    6.9745    6.7294    0.0000 H   0  0  0  0  0  0  0  0  0  0  0  0
    7.9473    7.1749    0.0000 H   0  0  0  0  0  0  0  0  0  0  0  0
   11.0793    3.8845    0.0000 H   0  0  0  0  0  0  0  0  0  0  0  0
   10.4886    4.8327    0.0000 H   0  0  0  0  0  0  0  0  0  0  0  0
    8.5272    6.2930    0.0000 H   0  0  0  0  0  0  0  0  0  0  0  0
   11.7490    6.0539    0.0000 H   0  0  0  0  0  0  0  0  0  0  0  0
   12.0698    7.0761    0.0000 H   0  0  0  0  0  0  0  0  0  0  0  0
    8.8837    8.6644    0.0000 H   0  0  0  0  0  0  0  0  0  0  0  0
    7.5098    7.4207    0.0000 H   0  0  0  0  0  0  0  0  0  0  0  0
    7.8377    8.4392    0.0000 H   0  0  0  0  0  0  0  0  0  0  0  0
   10.7513    9.0724    0.0000 H   0  0  0  0  0  0  0  0  0  0  0  0
   11.7972    9.3043    0.0000 H   0  0  0  0  0  0  0  0  0  0  0  0
   12.2048    9.3915    0.0000 H   0  0  0  0  0  0  0  0  0  0  0  0
   13.7032   11.0640    0.0000 H   0  0  0  0  0  0  0  0  0  0  0  0
   13.5944    6.4850    0.0000 H   0  0  0  0  0  0  0  0  0  0  0  0
   14.6411    6.7127    0.0000 H   0  0  0  0  0  0  0  0  0  0  0  0
   12.6889   12.1860    0.0000 H   0  0  0  0  0  0  0  0  0  0  0  0
   11.3150   10.9423    0.0000 H   0  0  0  0  0  0  0  0  0  0  0  0
   11.6429   11.9608    0.0000 H   0  0  0  0  0  0  0  0  0  0  0  0
   15.5521    9.5735    0.0000 H   0  0  0  0  0  0  0  0  0  0  0  0
   15.1548   11.3837    0.0000 H   0  0  0  0  0  0  0  0  0  0  0  0
   15.8760   10.5933    0.0000 H   0  0  0  0  0  0  0  0  0  0  0  0
   16.0957    7.0327    0.0000 H   0  0  0  0  0  0  0  0  0  0  0  0
   15.6984    8.8429    0.0000 H   0  0  0  0  0  0  0  0  0  0  0  0
   16.4196    8.0525    0.0000 H   0  0  0  0  0  0  0  0  0  0  0  0
  1 31  1  0  0  0  0
  2  1  1  0  0  0  0
  2  3  1  0  0  0  0
  2  4  1  0  0  0  0
  2 32  1  6  0  0  0
  3  5  1  0  0  0  0
  3 33  1  0  0  0  0
  3 34  1  0  0  0  0
  4  6  1  0  0  0  0
  4 35  1  0  0  0  0
  4 36  1  0  0  0  0
  5  7  2  0  0  0  0
  5  8  1  0  0  0  0
  6  8  1  0  0  0  0
  6 37  1  0  0  0  0
  6 38  1  0  0  0  0
  7  9  1  0  0  0  0
  7 39  1  0  0  0  0
  8 10  1  0  0  0  0
  8 11  1  1  0  0  0
  9 40  1  0  0  0  0
  9 41  1  0  0  0  0
 10 13  1  0  0  0  0
 10 12  1  0  0  0  0
 10 42  1  6  0  0  0
 11 43  1  0  0  0  0
 11 44  1  0  0  0  0
 11 45  1  0  0  0  0
 12  9  1  0  0  0  0
 12 14  1  0  0  0  0
 12 46  1  1  0  0  0
 13 15  1  0  0  0  0
 13 47  1  0  0  0  0
 13 48  1  0  0  0  0
 14 16  1  0  0  0  0
 14 17  1  0  0  0  0
 14 49  1  6  0  0  0
 15 16  1  0  0  0  0
 15 50  1  0  0  0  0
 15 51  1  0  0  0  0
 16 18  1  0  0  0  0
 16 19  1  1  0  0  0
 17 20  1  0  0  0  0
 17 52  1  0  0  0  0
 17 53  1  0  0  0  0
 18 21  1  0  0  0  0
 18 20  1  0  0  0  0
 18 54  1  6  0  0  0
 19 55  1  0  0  0  0
 19 56  1  0  0  0  0
 19 57  1  0  0  0  0
 20 58  1  0  0  0  0
 20 59  1  0  0  0  0
 21 22  1  0  0  0  0
 21 23  1  0  0  0  0
 21 60  1  1  0  0  0
 22 24  1  0  0  0  0
 22 61  1  0  0  0  0
 22 62  1  0  0  0  0
 23 63  1  0  0  0  0
 23 64  1  0  0  0  0
 23 65  1  0  0  0  0
 24 66  1  0  0  0  0
 24 67  1  0  0  0  0
 25 24  1  0  0  0  0
 25 26  1  0  0  0  0
 25 27  1  0  0  0  0
 25 68  1  1  0  0  0
 26 28  1  0  0  0  0
 26 29  1  0  0  0  0
 26 69  1  0  0  0  0
 27 30  1  0  0  0  0
 27 70  1  0  0  0  0
 27 71  1  0  0  0  0
 28 72  1  0  0  0  0
 28 73  1  0  0  0  0
 28 74  1  0  0  0  0
 29 75  1  0  0  0  0
 29 76  1  0  0  0  0
 29 77  1  0  0  0  0
 30 78  1  0  0  0  0
 30 79  1  0  0  0  0
 30 80  1  0  0  0  0
M  END
>  <Molecule Name>
-sitosterol

$$$$
7-Oxositosterol
 OpenBabel02222300512D

 79 82  0  0  0  0  0  0  0  0999 V2000
    0.0000    0.0000    0.0000 O   0  0  0  0  0  0  0  0  0  0  0  0
   -1.3069    0.7535    0.0000 C   0  0  0  0  0  0  0  0  0  0  0  0
   -2.6138    0.0235    0.0000 C   0  0  0  0  0  0  0  0  0  0  0  0
   -1.3187    2.2606    0.0000 C   0  0  3  0  0  0  0  0  0  0  0  0
   -3.9208    0.7770    0.0000 C   0  0  0  0  0  0  0  0  0  0  0  0
   -2.6256    3.0141    0.0000 C   0  0  3  0  0  0  0  0  0  0  0  0
   -0.0353    3.0141    0.0000 C   0  0  3  0  0  0  0  0  0  0  0  0
   -3.9325    2.2841    0.0000 C   0  0  1  0  0  0  0  0  0  0  0  0
   -5.2277    0.0470    0.0000 C   0  0  0  0  0  0  0  0  0  0  0  0
   -2.6374    4.5212    0.0000 C   0  0  0  0  0  0  0  0  0  0  0  0
   -0.0470    4.5212    0.0000 C   0  0  2  0  0  0  0  0  0  0  0  0
    1.3775    2.5667    0.0000 C   0  0  0  0  0  0  0  0  0  0  0  0
   -5.2395    3.0377    0.0000 C   0  0  0  0  0  0  0  0  0  0  0  0
   -3.9443    3.7912    0.0000 C   0  0  0  0  0  0  0  0  0  0  0  0
   -6.5346    0.8006    0.0000 C   0  0  3  0  0  0  0  0  0  0  0  0
   -1.3540    5.2748    0.0000 C   0  0  0  0  0  0  0  0  0  0  0  0
    1.3658    4.9922    0.0000 C   0  0  3  0  0  0  0  0  0  0  0  0
    0.0941    6.0166    0.0000 C   0  0  0  0  0  0  0  0  0  0  0  0
    2.2488    3.7912    0.0000 C   0  0  0  0  0  0  0  0  0  0  0  0
   -6.5464    2.3077    0.0000 C   0  0  0  0  0  0  0  0  0  0  0  0
   -7.8416    0.0706    0.0000 O   0  0  0  0  0  0  0  0  0  0  0  0
    1.8132    6.4287    0.0000 C   0  0  3  0  0  0  0  0  0  0  0  0
    3.2614    6.7466    0.0000 C   0  0  0  0  0  0  0  0  0  0  0  0
    0.7417    7.5001    0.0000 C   0  0  0  0  0  0  0  0  0  0  0  0
    3.7088    8.1830    0.0000 C   0  0  0  0  0  0  0  0  0  0  0  0
    5.1570    8.5009    0.0000 C   0  0  3  0  0  0  0  0  0  0  0  0
    5.5338    9.9609    0.0000 C   0  0  0  0  0  0  0  0  0  0  0  0
    6.2049    7.4530    0.0000 C   0  0  0  0  0  0  0  0  0  0  0  0
    4.4624   11.0324    0.0000 C   0  0  0  0  0  0  0  0  0  0  0  0
    6.9703   10.3612    0.0000 C   0  0  0  0  0  0  0  0  0  0  0  0
    7.6414    7.8533    0.0000 C   0  0  0  0  0  0  0  0  0  0  0  0
   -2.6208   -1.0085    0.0000 H   0  0  0  0  0  0  0  0  0  0  0  0
   -2.2431    1.7217    0.0000 H   0  0  0  0  0  0  0  0  0  0  0  0
   -1.7012    3.5530    0.0000 H   0  0  0  0  0  0  0  0  0  0  0  0
   -0.9659    3.5421    0.0000 H   0  0  0  0  0  0  0  0  0  0  0  0
   -5.2350   -1.0230    0.0000 H   0  0  0  0  0  0  0  0  0  0  0  0
   -6.1560   -0.4851    0.0000 H   0  0  0  0  0  0  0  0  0  0  0  0
   -3.5681    5.0492    0.0000 H   0  0  0  0  0  0  0  0  0  0  0  0
   -2.6454    5.5912    0.0000 H   0  0  0  0  0  0  0  0  0  0  0  0
    1.7170    1.5520    0.0000 H   0  0  0  0  0  0  0  0  0  0  0  0
    2.4358    2.4091    0.0000 H   0  0  0  0  0  0  0  0  0  0  0  0
   -5.2322    4.1077    0.0000 H   0  0  0  0  0  0  0  0  0  0  0  0
   -6.1605    3.5824    0.0000 H   0  0  0  0  0  0  0  0  0  0  0  0
   -3.0219    4.3334    0.0000 H   0  0  0  0  0  0  0  0  0  0  0  0
   -4.8751    4.3189    0.0000 H   0  0  0  0  0  0  0  0  0  0  0  0
   -3.9527    4.8612    0.0000 H   0  0  0  0  0  0  0  0  0  0  0  0
   -6.5419   -0.2694    0.0000 H   0  0  0  0  0  0  0  0  0  0  0  0
   -1.3582    6.3448    0.0000 H   0  0  0  0  0  0  0  0  0  0  0  0
   -0.4286    5.8119    0.0000 H   0  0  0  0  0  0  0  0  0  0  0  0
    0.6017    5.7413    0.0000 H   0  0  0  0  0  0  0  0  0  0  0  0
    1.0669    6.4622    0.0000 H   0  0  0  0  0  0  0  0  0  0  0  0
   -0.7782    6.6363    0.0000 H   0  0  0  0  0  0  0  0  0  0  0  0
    0.1946    7.0819    0.0000 H   0  0  0  0  0  0  0  0  0  0  0  0
    3.3188    3.7995    0.0000 H   0  0  0  0  0  0  0  0  0  0  0  0
    2.7282    4.7478    0.0000 H   0  0  0  0  0  0  0  0  0  0  0  0
   -7.4713    2.8456    0.0000 H   0  0  0  0  0  0  0  0  0  0  0  0
   -7.4718    1.7705    0.0000 H   0  0  0  0  0  0  0  0  0  0  0  0
   -8.6747    0.5675    0.0000 H   0  0  0  0  0  0  0  0  0  0  0  0
    2.5366    5.6403    0.0000 H   0  0  0  0  0  0  0  0  0  0  0  0
    3.9848    5.9582    0.0000 H   0  0  0  0  0  0  0  0  0  0  0  0
    4.3055    6.9804    0.0000 H   0  0  0  0  0  0  0  0  0  0  0  0
    1.0186    8.5337    0.0000 H   0  0  0  0  0  0  0  0  0  0  0  0
   -0.2918    7.2231    0.0000 H   0  0  0  0  0  0  0  0  0  0  0  0
   -0.0149    8.2567    0.0000 H   0  0  0  0  0  0  0  0  0  0  0  0
    2.9854    8.9714    0.0000 H   0  0  0  0  0  0  0  0  0  0  0  0
    4.0313    9.2033    0.0000 H   0  0  0  0  0  0  0  0  0  0  0  0
    4.4143    9.2712    0.0000 H   0  0  0  0  0  0  0  0  0  0  0  0
    5.8056   10.9958    0.0000 H   0  0  0  0  0  0  0  0  0  0  0  0
    5.9331    6.4181    0.0000 H   0  0  0  0  0  0  0  0  0  0  0  0
    6.9671    6.7021    0.0000 H   0  0  0  0  0  0  0  0  0  0  0  0
    4.7394   12.0659    0.0000 H   0  0  0  0  0  0  0  0  0  0  0  0
    3.4288   10.7555    0.0000 H   0  0  0  0  0  0  0  0  0  0  0  0
    3.7058   11.7890    0.0000 H   0  0  0  0  0  0  0  0  0  0  0  0
    7.7344    9.6122    0.0000 H   0  0  0  0  0  0  0  0  0  0  0  0
    7.2369   11.3975    0.0000 H   0  0  0  0  0  0  0  0  0  0  0  0
    8.0010   10.6484    0.0000 H   0  0  0  0  0  0  0  0  0  0  0  0
    8.4055    7.1043    0.0000 H   0  0  0  0  0  0  0  0  0  0  0  0
    7.9080    8.8896    0.0000 H   0  0  0  0  0  0  0  0  0  0  0  0
    8.6721    8.1405    0.0000 H   0  0  0  0  0  0  0  0  0  0  0  0
  1  2  2  0  0  0  0
  2  3  1  0  0  0  0
  2  4  1  0  0  0  0
  3  5  2  0  0  0  0
  3 32  1  0  0  0  0
  4  6  1  0  0  0  0
  4  7  1  0  0  0  0
  4 33  1  0  0  0  0
  5  8  1  0  0  0  0
  5  9  1  0  0  0  0
  6 10  1  0  0  0  0
  6  8  1  0  0  0  0
  6 34  1  0  0  0  0
  7 11  1  0  0  0  0
  7 12  1  0  0  0  0
  7 35  1  0  0  0  0
  8 13  1  0  0  0  0
  8 14  1  1  0  0  0
  9 15  1  0  0  0  0
  9 36  1  0  0  0  0
  9 37  1  0  0  0  0
 10 16  1  0  0  0  0
 10 38  1  0  0  0  0
 10 39  1  0  0  0  0
 11 17  1  0  0  0  0
 11 18  1  1  0  0  0
 11 16  1  0  0  0  0
 12 19  1  0  0  0  0
 12 40  1  0  0  0  0
 12 41  1  0  0  0  0
 13 20  1  0  0  0  0
 13 42  1  0  0  0  0
 13 43  1  0  0  0  0
 14 44  1  0  0  0  0
 14 45  1  0  0  0  0
 14 46  1  0  0  0  0
 15 21  1  0  0  0  0
 15 20  1  0  0  0  0
 15 47  1  0  0  0  0
 16 48  1  0  0  0  0
 16 49  1  0  0  0  0
 17 22  1  0  0  0  0
 17 19  1  0  0  0  0
 17 50  1  0  0  0  0
 18 51  1  0  0  0  0
 18 52  1  0  0  0  0
 18 53  1  0  0  0  0
 19 54  1  0  0  0  0
 19 55  1  0  0  0  0
 20 56  1  0  0  0  0
 20 57  1  0  0  0  0
 21 58  1  0  0  0  0
 22 23  1  0  0  0  0
 22 24  1  0  0  0  0
 22 59  1  0  0  0  0
 23 25  1  0  0  0  0
 23 60  1  0  0  0  0
 23 61  1  0  0  0  0
 24 62  1  0  0  0  0
 24 63  1  0  0  0  0
 24 64  1  0  0  0  0
 25 26  1  0  0  0  0
 25 65  1  0  0  0  0
 25 66  1  0  0  0  0
 26 27  1  0  0  0  0
 26 28  1  0  0  0  0
 26 67  1  0  0  0  0
 27 29  1  0  0  0  0
 27 30  1  0  0  0  0
 27 68  1  0  0  0  0
 28 31  1  0  0  0  0
 28 69  1  0  0  0  0
 28 70  1  0  0  0  0
 29 71  1  0  0  0  0
 29 72  1  0  0  0  0
 29 73  1  0  0  0  0
 30 74  1  0  0  0  0
 30 75  1  0  0  0  0
 30 76  1  0  0  0  0
 31 77  1  0  0  0  0
 31 78  1  0  0  0  0
 31 79  1  0  0  0  0
M  END
>  <Molecule Name>
7-Oxositosterol

$$$$
Palmitic acid
 OpenBabel02222300512D

 50 49  0  0  0  0  0  0  0  0999 V2000
    0.0000    0.0000    0.0000 O   0  0  0  0  0  0  0  0  0  0  0  0
   -0.0117   -1.4783    0.0000 C   0  0  0  0  0  0  0  0  0  0  0  0
    1.2671   -2.2175    0.0000 O   0  0  0  0  0  0  0  0  0  0  0  0
   -1.3140   -2.2175    0.0000 C   0  0  0  0  0  0  0  0  0  0  0  0
   -2.6164   -1.4548    0.0000 C   0  0  0  0  0  0  0  0  0  0  0  0
   -3.9187   -2.1940    0.0000 C   0  0  0  0  0  0  0  0  0  0  0  0
   -5.2211   -1.4314    0.0000 C   0  0  0  0  0  0  0  0  0  0  0  0
   -6.5234   -2.1705    0.0000 C   0  0  0  0  0  0  0  0  0  0  0  0
   -7.8258   -1.4079    0.0000 C   0  0  0  0  0  0  0  0  0  0  0  0
   -9.1281   -2.1471    0.0000 C   0  0  0  0  0  0  0  0  0  0  0  0
  -10.4305   -1.3844    0.0000 C   0  0  0  0  0  0  0  0  0  0  0  0
  -11.7328   -2.1236    0.0000 C   0  0  0  0  0  0  0  0  0  0  0  0
  -13.0352   -1.3610    0.0000 C   0  0  0  0  0  0  0  0  0  0  0  0
  -14.3375   -2.1001    0.0000 C   0  0  0  0  0  0  0  0  0  0  0  0
  -15.6399   -1.3375    0.0000 C   0  0  0  0  0  0  0  0  0  0  0  0
  -16.9422   -2.0767    0.0000 C   0  0  0  0  0  0  0  0  0  0  0  0
  -18.2446   -1.3140    0.0000 C   0  0  0  0  0  0  0  0  0  0  0  0
  -19.5469   -2.0532    0.0000 C   0  0  0  0  0  0  0  0  0  0  0  0
    1.2666   -3.1545    0.0000 H   0  0  0  0  0  0  0  0  0  0  0  0
   -1.3212   -3.2875    0.0000 H   0  0  0  0  0  0  0  0  0  0  0  0
   -2.2441   -2.7465    0.0000 H   0  0  0  0  0  0  0  0  0  0  0  0
   -2.6092   -0.3848    0.0000 H   0  0  0  0  0  0  0  0  0  0  0  0
   -3.5393   -0.9133    0.0000 H   0  0  0  0  0  0  0  0  0  0  0  0
   -3.9259   -3.2640    0.0000 H   0  0  0  0  0  0  0  0  0  0  0  0
   -4.8488   -2.7230    0.0000 H   0  0  0  0  0  0  0  0  0  0  0  0
   -5.2139   -0.3614    0.0000 H   0  0  0  0  0  0  0  0  0  0  0  0
   -6.1439   -0.8899    0.0000 H   0  0  0  0  0  0  0  0  0  0  0  0
   -6.5306   -3.2405    0.0000 H   0  0  0  0  0  0  0  0  0  0  0  0
   -7.4535   -2.6995    0.0000 H   0  0  0  0  0  0  0  0  0  0  0  0
   -7.8186   -0.3379    0.0000 H   0  0  0  0  0  0  0  0  0  0  0  0
   -8.7487   -0.8664    0.0000 H   0  0  0  0  0  0  0  0  0  0  0  0
   -9.1353   -3.2171    0.0000 H   0  0  0  0  0  0  0  0  0  0  0  0
  -10.0582   -2.6761    0.0000 H   0  0  0  0  0  0  0  0  0  0  0  0
  -10.4233   -0.3144    0.0000 H   0  0  0  0  0  0  0  0  0  0  0  0
  -11.3534   -0.8429    0.0000 H   0  0  0  0  0  0  0  0  0  0  0  0
  -11.7400   -3.1936    0.0000 H   0  0  0  0  0  0  0  0  0  0  0  0
  -12.6629   -2.6526    0.0000 H   0  0  0  0  0  0  0  0  0  0  0  0
  -13.0280   -0.2910    0.0000 H   0  0  0  0  0  0  0  0  0  0  0  0
  -13.9580   -0.8195    0.0000 H   0  0  0  0  0  0  0  0  0  0  0  0
  -14.3447   -3.1701    0.0000 H   0  0  0  0  0  0  0  0  0  0  0  0
  -15.2676   -2.6291    0.0000 H   0  0  0  0  0  0  0  0  0  0  0  0
  -15.6327   -0.2675    0.0000 H   0  0  0  0  0  0  0  0  0  0  0  0
  -16.5628   -0.7960    0.0000 H   0  0  0  0  0  0  0  0  0  0  0  0
  -16.9494   -3.1467    0.0000 H   0  0  0  0  0  0  0  0  0  0  0  0
  -17.8723   -2.6057    0.0000 H   0  0  0  0  0  0  0  0  0  0  0  0
  -18.2374   -0.2440    0.0000 H   0  0  0  0  0  0  0  0  0  0  0  0
  -19.1675   -0.7725    0.0000 H   0  0  0  0  0  0  0  0  0  0  0  0
  -20.4696   -1.5114    0.0000 H   0  0  0  0  0  0  0  0  0  0  0  0
  -19.5547   -3.1232    0.0000 H   0  0  0  0  0  0  0  0  0  0  0  0
  -20.4774   -2.5814    0.0000 H   0  0  0  0  0  0  0  0  0  0  0  0
  1  2  2  0  0  0  0
  2  3  1  0  0  0  0
  2  4  1  0  0  0  0
  3 19  1  0  0  0  0
  4  5  1  0  0  0  0
  4 20  1  0  0  0  0
  4 21  1  0  0  0  0
  5  6  1  0  0  0  0
  5 22  1  0  0  0  0
  5 23  1  0  0  0  0
  6  7  1  0  0  0  0
  6 24  1  0  0  0  0
  6 25  1  0  0  0  0
  7  8  1  0  0  0  0
  7 26  1  0  0  0  0
  7 27  1  0  0  0  0
  8  9  1  0  0  0  0
  8 28  1  0  0  0  0
  8 29  1  0  0  0  0
  9 10  1  0  0  0  0
  9 30  1  0  0  0  0
  9 31  1  0  0  0  0
 10 11  1  0  0  0  0
 10 32  1  0  0  0  0
 10 33  1  0  0  0  0
 11 12  1  0  0  0  0
 11 34  1  0  0  0  0
 11 35  1  0  0  0  0
 12 13  1  0  0  0  0
 12 36  1  0  0  0  0
 12 37  1  0  0  0  0
 13 14  1  0  0  0  0
 13 38  1  0  0  0  0
 13 39  1  0  0  0  0
 14 15  1  0  0  0  0
 14 40  1  0  0  0  0
 14 41  1  0  0  0  0
 15 16  1  0  0  0  0
 15 42  1  0  0  0  0
 15 43  1  0  0  0  0
 16 17  1  0  0  0  0
 16 44  1  0  0  0  0
 16 45  1  0  0  0  0
 17 18  1  0  0  0  0
 17 46  1  0  0  0  0
 17 47  1  0  0  0  0
 18 48  1  0  0  0  0
 18 49  1  0  0  0  0
 18 50  1  0  0  0  0
M  END
>  <Molecule Name>
Palmitic acid

$$$$
Tetradecanoic acid, methyl ester
 OpenBabel02222300512D

 47 46  0  0  0  0  0  0  0  0999 V2000
    0.0000    0.0000    0.0000 O   0  0  0  0  0  0  0  0  0  0  0  0
   -0.0117   -1.4848    0.0000 C   0  0  0  0  0  0  0  0  0  0  0  0
    1.2727   -2.2154    0.0000 O   0  0  0  0  0  0  0  0  0  0  0  0
   -1.3198   -2.2154    0.0000 C   0  0  0  0  0  0  0  0  0  0  0  0
    2.5572   -1.4612    0.0000 C   0  0  0  0  0  0  0  0  0  0  0  0
   -2.6279   -1.4612    0.0000 C   0  0  0  0  0  0  0  0  0  0  0  0
   -3.9360   -2.1919    0.0000 C   0  0  0  0  0  0  0  0  0  0  0  0
   -5.2441   -1.4377    0.0000 C   0  0  0  0  0  0  0  0  0  0  0  0
   -6.5521   -2.1683    0.0000 C   0  0  0  0  0  0  0  0  0  0  0  0
   -7.8602   -1.4141    0.0000 C   0  0  0  0  0  0  0  0  0  0  0  0
   -9.1683   -2.1447    0.0000 C   0  0  0  0  0  0  0  0  0  0  0  0
  -10.4764   -1.3905    0.0000 C   0  0  0  0  0  0  0  0  0  0  0  0
  -11.7845   -2.1212    0.0000 C   0  0  0  0  0  0  0  0  0  0  0  0
  -13.0926   -1.3670    0.0000 C   0  0  0  0  0  0  0  0  0  0  0  0
  -14.4006   -2.0976    0.0000 C   0  0  0  0  0  0  0  0  0  0  0  0
  -15.7087   -1.3434    0.0000 C   0  0  0  0  0  0  0  0  0  0  0  0
  -17.0168   -2.0740    0.0000 C   0  0  0  0  0  0  0  0  0  0  0  0
   -1.3271   -3.2854    0.0000 H   0  0  0  0  0  0  0  0  0  0  0  0
   -2.2481   -2.7475    0.0000 H   0  0  0  0  0  0  0  0  0  0  0  0
    3.4877   -1.9894    0.0000 H   0  0  0  0  0  0  0  0  0  0  0  0
    2.5494   -0.3912    0.0000 H   0  0  0  0  0  0  0  0  0  0  0  0
    3.4799   -0.9194    0.0000 H   0  0  0  0  0  0  0  0  0  0  0  0
   -2.6206   -0.3912    0.0000 H   0  0  0  0  0  0  0  0  0  0  0  0
   -3.5489   -0.9165    0.0000 H   0  0  0  0  0  0  0  0  0  0  0  0
   -3.9433   -3.2619    0.0000 H   0  0  0  0  0  0  0  0  0  0  0  0
   -4.8643   -2.7240    0.0000 H   0  0  0  0  0  0  0  0  0  0  0  0
   -5.2368   -0.3677    0.0000 H   0  0  0  0  0  0  0  0  0  0  0  0
   -6.1651   -0.8930    0.0000 H   0  0  0  0  0  0  0  0  0  0  0  0
   -6.5594   -3.2383    0.0000 H   0  0  0  0  0  0  0  0  0  0  0  0
   -7.4804   -2.7004    0.0000 H   0  0  0  0  0  0  0  0  0  0  0  0
   -7.8529   -0.3441    0.0000 H   0  0  0  0  0  0  0  0  0  0  0  0
   -8.7812   -0.8694    0.0000 H   0  0  0  0  0  0  0  0  0  0  0  0
   -9.1756   -3.2147    0.0000 H   0  0  0  0  0  0  0  0  0  0  0  0
  -10.0966   -2.6768    0.0000 H   0  0  0  0  0  0  0  0  0  0  0  0
  -10.4691   -0.3205    0.0000 H   0  0  0  0  0  0  0  0  0  0  0  0
  -11.3974   -0.8458    0.0000 H   0  0  0  0  0  0  0  0  0  0  0  0
  -11.7918   -3.1912    0.0000 H   0  0  0  0  0  0  0  0  0  0  0  0
  -12.7128   -2.6533    0.0000 H   0  0  0  0  0  0  0  0  0  0  0  0
  -13.0853   -0.2970    0.0000 H   0  0  0  0  0  0  0  0  0  0  0  0
  -14.0136   -0.8223    0.0000 H   0  0  0  0  0  0  0  0  0  0  0  0
  -14.4079   -3.1676    0.0000 H   0  0  0  0  0  0  0  0  0  0  0  0
  -15.3289   -2.6297    0.0000 H   0  0  0  0  0  0  0  0  0  0  0  0
  -15.7014   -0.2734    0.0000 H   0  0  0  0  0  0  0  0  0  0  0  0
  -16.6297   -0.7987    0.0000 H   0  0  0  0  0  0  0  0  0  0  0  0
  -17.9357   -1.5259    0.0000 H   0  0  0  0  0  0  0  0  0  0  0  0
  -17.0320   -3.1439    0.0000 H   0  0  0  0  0  0  0  0  0  0  0  0
  -17.9510   -2.5958    0.0000 H   0  0  0  0  0  0  0  0  0  0  0  0
  1  2  2  0  0  0  0
  2  3  1  0  0  0  0
  2  4  1  0  0  0  0
  3  5  1  0  0  0  0
  4  6  1  0  0  0  0
  4 18  1  0  0  0  0
  4 19  1  0  0  0  0
  5 20  1  0  0  0  0
  5 21  1  0  0  0  0
  5 22  1  0  0  0  0
  6  7  1  0  0  0  0
  6 23  1  0  0  0  0
  6 24  1  0  0  0  0
  7  8  1  0  0  0  0
  7 25  1  0  0  0  0
  7 26  1  0  0  0  0
  8  9  1  0  0  0  0
  8 27  1  0  0  0  0
  8 28  1  0  0  0  0
  9 10  1  0  0  0  0
  9 29  1  0  0  0  0
  9 30  1  0  0  0  0
 10 11  1  0  0  0  0
 10 31  1  0  0  0  0
 10 32  1  0  0  0  0
 11 12  1  0  0  0  0
 11 33  1  0  0  0  0
 11 34  1  0  0  0  0
 12 13  1  0  0  0  0
 12 35  1  0  0  0  0
 12 36  1  0  0  0  0
 13 14  1  0  0  0  0
 13 37  1  0  0  0  0
 13 38  1  0  0  0  0
 14 15  1  0  0  0  0
 14 39  1  0  0  0  0
 14 40  1  0  0  0  0
 15 16  1  0  0  0  0
 15 41  1  0  0  0  0
 15 42  1  0  0  0  0
 16 17  1  0  0  0  0
 16 43  1  0  0  0  0
 16 44  1  0  0  0  0
 17 45  1  0  0  0  0
 17 46  1  0  0  0  0
 17 47  1  0  0  0  0
M  END
>  <Molecule Name>
Tetradecanoic acid, methyl ester

$$$$
Heneicosanoic acid, methyl ester
 OpenBabel02222300512D

 68 67  0  0  0  0  0  0  0  0999 V2000
    0.0000    0.0000    0.0000 O   0  0  0  0  0  0  0  0  0  0  0  0
   -0.0117   -1.4833    0.0000 C   0  0  0  0  0  0  0  0  0  0  0  0
    1.2714   -2.2132    0.0000 O   0  0  0  0  0  0  0  0  0  0  0  0
   -1.3185   -2.2132    0.0000 C   0  0  0  0  0  0  0  0  0  0  0  0
    2.5546   -1.4598    0.0000 C   0  0  0  0  0  0  0  0  0  0  0  0
   -2.6253   -1.4598    0.0000 C   0  0  0  0  0  0  0  0  0  0  0  0
   -3.9320   -2.1897    0.0000 C   0  0  0  0  0  0  0  0  0  0  0  0
   -5.2388   -1.4362    0.0000 C   0  0  0  0  0  0  0  0  0  0  0  0
   -6.5456   -2.1661    0.0000 C   0  0  0  0  0  0  0  0  0  0  0  0
   -7.8523   -1.4127    0.0000 C   0  0  0  0  0  0  0  0  0  0  0  0
   -9.1591   -2.1426    0.0000 C   0  0  0  0  0  0  0  0  0  0  0  0
  -10.4659   -1.3891    0.0000 C   0  0  0  0  0  0  0  0  0  0  0  0
  -11.7727   -2.1190    0.0000 C   0  0  0  0  0  0  0  0  0  0  0  0
  -13.0794   -1.3656    0.0000 C   0  0  0  0  0  0  0  0  0  0  0  0
  -14.3862   -2.0955    0.0000 C   0  0  0  0  0  0  0  0  0  0  0  0
  -15.6930   -1.3420    0.0000 C   0  0  0  0  0  0  0  0  0  0  0  0
  -16.9997   -2.0719    0.0000 C   0  0  0  0  0  0  0  0  0  0  0  0
  -18.3065   -1.3185    0.0000 C   0  0  0  0  0  0  0  0  0  0  0  0
  -19.6133   -2.0484    0.0000 C   0  0  0  0  0  0  0  0  0  0  0  0
  -20.9200   -1.2949    0.0000 C   0  0  0  0  0  0  0  0  0  0  0  0
  -22.2268   -2.0249    0.0000 C   0  0  0  0  0  0  0  0  0  0  0  0
  -23.5336   -1.2714    0.0000 C   0  0  0  0  0  0  0  0  0  0  0  0
  -24.8403   -2.0013    0.0000 C   0  0  0  0  0  0  0  0  0  0  0  0
  -26.1471   -1.2479    0.0000 C   0  0  0  0  0  0  0  0  0  0  0  0
   -1.3258   -3.2832    0.0000 H   0  0  0  0  0  0  0  0  0  0  0  0
   -2.2468   -2.7453    0.0000 H   0  0  0  0  0  0  0  0  0  0  0  0
    3.4851   -1.9880    0.0000 H   0  0  0  0  0  0  0  0  0  0  0  0
    2.5468   -0.3898    0.0000 H   0  0  0  0  0  0  0  0  0  0  0  0
    3.4773   -0.9180    0.0000 H   0  0  0  0  0  0  0  0  0  0  0  0
   -2.6180   -0.3898    0.0000 H   0  0  0  0  0  0  0  0  0  0  0  0
   -3.5463   -0.9151    0.0000 H   0  0  0  0  0  0  0  0  0  0  0  0
   -3.9393   -3.2597    0.0000 H   0  0  0  0  0  0  0  0  0  0  0  0
   -4.8603   -2.7218    0.0000 H   0  0  0  0  0  0  0  0  0  0  0  0
   -5.2315   -0.3662    0.0000 H   0  0  0  0  0  0  0  0  0  0  0  0
   -6.1598   -0.8915    0.0000 H   0  0  0  0  0  0  0  0  0  0  0  0
   -6.5529   -3.2361    0.0000 H   0  0  0  0  0  0  0  0  0  0  0  0
   -7.4739   -2.6982    0.0000 H   0  0  0  0  0  0  0  0  0  0  0  0
   -7.8450   -0.3427    0.0000 H   0  0  0  0  0  0  0  0  0  0  0  0
   -8.7733   -0.8680    0.0000 H   0  0  0  0  0  0  0  0  0  0  0  0
   -9.1664   -3.2126    0.0000 H   0  0  0  0  0  0  0  0  0  0  0  0
  -10.0874   -2.6747    0.0000 H   0  0  0  0  0  0  0  0  0  0  0  0
  -10.4586   -0.3191    0.0000 H   0  0  0  0  0  0  0  0  0  0  0  0
  -11.3869   -0.8444    0.0000 H   0  0  0  0  0  0  0  0  0  0  0  0
  -11.7800   -3.1890    0.0000 H   0  0  0  0  0  0  0  0  0  0  0  0
  -12.7010   -2.6511    0.0000 H   0  0  0  0  0  0  0  0  0  0  0  0
  -13.0721   -0.2956    0.0000 H   0  0  0  0  0  0  0  0  0  0  0  0
  -14.0004   -0.8209    0.0000 H   0  0  0  0  0  0  0  0  0  0  0  0
  -14.3935   -3.1655    0.0000 H   0  0  0  0  0  0  0  0  0  0  0  0
  -15.3145   -2.6276    0.0000 H   0  0  0  0  0  0  0  0  0  0  0  0
  -15.6857   -0.2720    0.0000 H   0  0  0  0  0  0  0  0  0  0  0  0
  -16.6140   -0.7973    0.0000 H   0  0  0  0  0  0  0  0  0  0  0  0
  -17.0070   -3.1419    0.0000 H   0  0  0  0  0  0  0  0  0  0  0  0
  -17.9280   -2.6040    0.0000 H   0  0  0  0  0  0  0  0  0  0  0  0
  -18.2992   -0.2485    0.0000 H   0  0  0  0  0  0  0  0  0  0  0  0
  -19.2275   -0.7738    0.0000 H   0  0  0  0  0  0  0  0  0  0  0  0
  -19.6206   -3.1184    0.0000 H   0  0  0  0  0  0  0  0  0  0  0  0
  -20.5416   -2.5805    0.0000 H   0  0  0  0  0  0  0  0  0  0  0  0
  -20.9127   -0.2249    0.0000 H   0  0  0  0  0  0  0  0  0  0  0  0
  -21.8410   -0.7502    0.0000 H   0  0  0  0  0  0  0  0  0  0  0  0
  -22.2341   -3.0949    0.0000 H   0  0  0  0  0  0  0  0  0  0  0  0
  -23.1551   -2.5570    0.0000 H   0  0  0  0  0  0  0  0  0  0  0  0
  -23.5263   -0.2014    0.0000 H   0  0  0  0  0  0  0  0  0  0  0  0
  -24.4546   -0.7267    0.0000 H   0  0  0  0  0  0  0  0  0  0  0  0
  -24.8476   -3.0713    0.0000 H   0  0  0  0  0  0  0  0  0  0  0  0
  -25.7686   -2.5334    0.0000 H   0  0  0  0  0  0  0  0  0  0  0  0
  -26.1478   -0.1779    0.0000 H   0  0  0  0  0  0  0  0  0  0  0  0
  -27.0734   -1.7835    0.0000 H   0  0  0  0  0  0  0  0  0  0  0  0
  -27.0741   -0.7135    0.0000 H   0  0  0  0  0  0  0  0  0  0  0  0
  1  2  2  0  0  0  0
  2  3  1  0  0  0  0
  2  4  1  0  0  0  0
  3  5  1  0  0  0  0
  4  6  1  0  0  0  0
  4 25  1  0  0  0  0
  4 26  1  0  0  0  0
  5 27  1  0  0  0  0
  5 28  1  0  0  0  0
  5 29  1  0  0  0  0
  6  7  1  0  0  0  0
  6 30  1  0  0  0  0
  6 31  1  0  0  0  0
  7  8  1  0  0  0  0
  7 32  1  0  0  0  0
  7 33  1  0  0  0  0
  8  9  1  0  0  0  0
  8 34  1  0  0  0  0
  8 35  1  0  0  0  0
  9 10  1  0  0  0  0
  9 36  1  0  0  0  0
  9 37  1  0  0  0  0
 10 11  1  0  0  0  0
 10 38  1  0  0  0  0
 10 39  1  0  0  0  0
 11 12  1  0  0  0  0
 11 40  1  0  0  0  0
 11 41  1  0  0  0  0
 12 13  1  0  0  0  0
 12 42  1  0  0  0  0
 12 43  1  0  0  0  0
 13 14  1  0  0  0  0
 13 44  1  0  0  0  0
 13 45  1  0  0  0  0
 14 15  1  0  0  0  0
 14 46  1  0  0  0  0
 14 47  1  0  0  0  0
 15 16  1  0  0  0  0
 15 48  1  0  0  0  0
 15 49  1  0  0  0  0
 16 17  1  0  0  0  0
 16 50  1  0  0  0  0
 16 51  1  0  0  0  0
 17 18  1  0  0  0  0
 17 52  1  0  0  0  0
 17 53  1  0  0  0  0
 18 19  1  0  0  0  0
 18 54  1  0  0  0  0
 18 55  1  0  0  0  0
 19 20  1  0  0  0  0
 19 56  1  0  0  0  0
 19 57  1  0  0  0  0
 20 21  1  0  0  0  0
 20 58  1  0  0  0  0
 20 59  1  0  0  0  0
 21 22  1  0  0  0  0
 21 60  1  0  0  0  0
 21 61  1  0  0  0  0
 22 23  1  0  0  0  0
 22 62  1  0  0  0  0
 22 63  1  0  0  0  0
 23 24  1  0  0  0  0
 23 64  1  0  0  0  0
 23 65  1  0  0  0  0
 24 66  1  0  0  0  0
 24 67  1  0  0  0  0
 24 68  1  0  0  0  0
M  END
>  <Molecule Name>
Heneicosanoic acid, methyl ester

$$$$
Loliolide
 OpenBabel02222300512D

 30 31  0  0  0  0  0  0  0  0999 V2000
    0.0000    0.0000    0.0000 O   0  0  0  0  0  0  0  0  0  0  0  0
   -1.5021    0.0117    0.0000 C   0  0  0  0  0  0  0  0  0  0  0  0
   -2.3941   -1.1853    0.0000 O   0  0  0  0  0  0  0  0  0  0  0  0
   -2.3941    1.2322    0.0000 C   0  0  0  0  0  0  0  0  0  0  0  0
   -3.8259   -0.7158    0.0000 C   0  0  1  0  0  0  0  0  0  0  0  0
   -3.8259    0.7863    0.0000 C   0  0  0  0  0  0  0  0  0  0  0  0
   -5.1285   -1.4552    0.0000 C   0  0  0  0  0  0  0  0  0  0  0  0
   -3.6850   -2.1828    0.0000 C   0  0  0  0  0  0  0  0  0  0  0  0
   -5.1285    1.5491    0.0000 C   0  0  0  0  0  0  0  0  0  0  0  0
   -6.4312   -0.6924    0.0000 C   0  0  2  0  0  0  0  0  0  0  0  0
   -6.4312    0.8097    0.0000 C   0  0  0  0  0  0  0  0  0  0  0  0
   -5.8796    2.8518    0.0000 C   0  0  0  0  0  0  0  0  0  0  0  0
   -4.4009    2.8518    0.0000 C   0  0  0  0  0  0  0  0  0  0  0  0
   -7.7339   -1.4317    0.0000 O   0  0  0  0  0  0  0  0  0  0  0  0
   -2.0706    2.2122    0.0000 H   0  0  0  0  0  0  0  0  0  0  0  0
   -5.1357   -2.5252    0.0000 H   0  0  0  0  0  0  0  0  0  0  0  0
   -6.0586   -1.9842    0.0000 H   0  0  0  0  0  0  0  0  0  0  0  0
   -4.5563   -2.8039    0.0000 H   0  0  0  0  0  0  0  0  0  0  0  0
   -2.7114   -2.6268    0.0000 H   0  0  0  0  0  0  0  0  0  0  0  0
   -3.5827   -3.2479    0.0000 H   0  0  0  0  0  0  0  0  0  0  0  0
   -6.4384   -1.7624    0.0000 H   0  0  0  0  0  0  0  0  0  0  0  0
   -7.3559    1.3481    0.0000 H   0  0  0  0  0  0  0  0  0  0  0  0
   -7.3588    0.2764    0.0000 H   0  0  0  0  0  0  0  0  0  0  0  0
   -5.3441    3.7781    0.0000 H   0  0  0  0  0  0  0  0  0  0  0  0
   -6.9496    2.8524    0.0000 H   0  0  0  0  0  0  0  0  0  0  0  0
   -6.4141    3.7788    0.0000 H   0  0  0  0  0  0  0  0  0  0  0  0
   -3.3310    2.8670    0.0000 H   0  0  0  0  0  0  0  0  0  0  0  0
   -4.9490    3.7707    0.0000 H   0  0  0  0  0  0  0  0  0  0  0  0
   -3.8791    3.7860    0.0000 H   0  0  0  0  0  0  0  0  0  0  0  0
   -8.5703   -0.9405    0.0000 H   0  0  0  0  0  0  0  0  0  0  0  0
  1  2  2  0  0  0  0
  2  3  1  0  0  0  0
  2  4  1  0  0  0  0
  3  5  1  0  0  0  0
  4  6  2  0  0  0  0
  4 15  1  0  0  0  0
  5  7  1  0  0  0  0
  5  8  1  1  0  0  0
  5  6  1  0  0  0  0
  6  9  1  0  0  0  0
  7 10  1  0  0  0  0
  7 16  1  0  0  0  0
  7 17  1  0  0  0  0
  8 18  1  0  0  0  0
  8 19  1  0  0  0  0
  8 20  1  0  0  0  0
  9 11  1  0  0  0  0
  9 12  1  0  0  0  0
  9 13  1  0  0  0  0
 10 14  1  0  0  0  0
 10 11  1  0  0  0  0
 10 21  1  6  0  0  0
 11 22  1  0  0  0  0
 11 23  1  0  0  0  0
 12 24  1  0  0  0  0
 12 25  1  0  0  0  0
 12 26  1  0  0  0  0
 13 27  1  0  0  0  0
 13 28  1  0  0  0  0
 13 29  1  0  0  0  0
 14 30  1  0  0  0  0
M  END
>  <Molecule Name>
Loliolide

$$$$
Behenic alcohol
 OpenBabel02222300512D

 69 68  0  0  0  0  0  0  0  0999 V2000
    0.0000    0.0000    0.0000 O   0  0  0  0  0  0  0  0  0  0  0  0
    1.3178    0.7321    0.0000 C   0  0  0  0  0  0  0  0  0  0  0  0
    2.5938   -0.0418    0.0000 C   0  0  0  0  0  0  0  0  0  0  0  0
    3.9117    0.6903    0.0000 C   0  0  0  0  0  0  0  0  0  0  0  0
    5.1877   -0.0836    0.0000 C   0  0  0  0  0  0  0  0  0  0  0  0
    6.5056    0.6484    0.0000 C   0  0  0  0  0  0  0  0  0  0  0  0
    7.7816   -0.1255    0.0000 C   0  0  0  0  0  0  0  0  0  0  0  0
    9.0995    0.6066    0.0000 C   0  0  0  0  0  0  0  0  0  0  0  0
   10.3755   -0.1673    0.0000 C   0  0  0  0  0  0  0  0  0  0  0  0
   11.6934    0.5647    0.0000 C   0  0  0  0  0  0  0  0  0  0  0  0
   12.9694   -0.2091    0.0000 C   0  0  0  0  0  0  0  0  0  0  0  0
   14.2873    0.5229    0.0000 C   0  0  0  0  0  0  0  0  0  0  0  0
   15.5633   -0.2510    0.0000 C   0  0  0  0  0  0  0  0  0  0  0  0
   16.8812    0.4811    0.0000 C   0  0  0  0  0  0  0  0  0  0  0  0
   18.1572   -0.2928    0.0000 C   0  0  0  0  0  0  0  0  0  0  0  0
   19.4751    0.4392    0.0000 C   0  0  0  0  0  0  0  0  0  0  0  0
   20.7511   -0.3346    0.0000 C   0  0  0  0  0  0  0  0  0  0  0  0
   22.0690    0.3974    0.0000 C   0  0  0  0  0  0  0  0  0  0  0  0
   23.3450   -0.3765    0.0000 C   0  0  0  0  0  0  0  0  0  0  0  0
   24.6629    0.3556    0.0000 C   0  0  0  0  0  0  0  0  0  0  0  0
   25.9389   -0.4183    0.0000 C   0  0  0  0  0  0  0  0  0  0  0  0
   27.2568    0.3137    0.0000 C   0  0  0  0  0  0  0  0  0  0  0  0
   28.5328   -0.4602    0.0000 C   0  0  0  0  0  0  0  0  0  0  0  0
   -0.8319    0.4988    0.0000 H   0  0  0  0  0  0  0  0  0  0  0  0
    1.3382    1.8019    0.0000 H   0  0  0  0  0  0  0  0  0  0  0  0
    2.2551    1.2482    0.0000 H   0  0  0  0  0  0  0  0  0  0  0  0
    2.5734   -1.1116    0.0000 H   0  0  0  0  0  0  0  0  0  0  0  0
    3.5108   -0.5932    0.0000 H   0  0  0  0  0  0  0  0  0  0  0  0
    3.9321    1.7601    0.0000 H   0  0  0  0  0  0  0  0  0  0  0  0
    4.8490    1.2064    0.0000 H   0  0  0  0  0  0  0  0  0  0  0  0
    5.1673   -1.1534    0.0000 H   0  0  0  0  0  0  0  0  0  0  0  0
    6.1047   -0.6351    0.0000 H   0  0  0  0  0  0  0  0  0  0  0  0
    6.5260    1.7182    0.0000 H   0  0  0  0  0  0  0  0  0  0  0  0
    7.4429    1.1644    0.0000 H   0  0  0  0  0  0  0  0  0  0  0  0
    7.7612   -1.1953    0.0000 H   0  0  0  0  0  0  0  0  0  0  0  0
    8.6986   -0.6769    0.0000 H   0  0  0  0  0  0  0  0  0  0  0  0
    9.1199    1.6764    0.0000 H   0  0  0  0  0  0  0  0  0  0  0  0
   10.0368    1.1227    0.0000 H   0  0  0  0  0  0  0  0  0  0  0  0
   10.3551   -1.2371    0.0000 H   0  0  0  0  0  0  0  0  0  0  0  0
   11.2925   -0.7188    0.0000 H   0  0  0  0  0  0  0  0  0  0  0  0
   11.7138    1.6345    0.0000 H   0  0  0  0  0  0  0  0  0  0  0  0
   12.6307    1.0808    0.0000 H   0  0  0  0  0  0  0  0  0  0  0  0
   12.9490   -1.2789    0.0000 H   0  0  0  0  0  0  0  0  0  0  0  0
   13.8864   -0.7605    0.0000 H   0  0  0  0  0  0  0  0  0  0  0  0
   14.3077    1.5927    0.0000 H   0  0  0  0  0  0  0  0  0  0  0  0
   15.2246    1.0389    0.0000 H   0  0  0  0  0  0  0  0  0  0  0  0
   15.5429   -1.3208    0.0000 H   0  0  0  0  0  0  0  0  0  0  0  0
   16.4803   -0.8024    0.0000 H   0  0  0  0  0  0  0  0  0  0  0  0
   16.9016    1.5509    0.0000 H   0  0  0  0  0  0  0  0  0  0  0  0
   17.8185    0.9972    0.0000 H   0  0  0  0  0  0  0  0  0  0  0  0
   18.1368   -1.3626    0.0000 H   0  0  0  0  0  0  0  0  0  0  0  0
   19.0742   -0.8443    0.0000 H   0  0  0  0  0  0  0  0  0  0  0  0
   19.4955    1.5090    0.0000 H   0  0  0  0  0  0  0  0  0  0  0  0
   20.4124    0.9553    0.0000 H   0  0  0  0  0  0  0  0  0  0  0  0
   20.7307   -1.4044    0.0000 H   0  0  0  0  0  0  0  0  0  0  0  0
   21.6681   -0.8860    0.0000 H   0  0  0  0  0  0  0  0  0  0  0  0
   22.0894    1.4672    0.0000 H   0  0  0  0  0  0  0  0  0  0  0  0
   23.0063    0.9134    0.0000 H   0  0  0  0  0  0  0  0  0  0  0  0
   23.3246   -1.4463    0.0000 H   0  0  0  0  0  0  0  0  0  0  0  0
   24.2620   -0.9279    0.0000 H   0  0  0  0  0  0  0  0  0  0  0  0
   24.6833    1.4254    0.0000 H   0  0  0  0  0  0  0  0  0  0  0  0
   25.6002    0.8717    0.0000 H   0  0  0  0  0  0  0  0  0  0  0  0
   25.9185   -1.4881    0.0000 H   0  0  0  0  0  0  0  0  0  0  0  0
   26.8559   -0.9698    0.0000 H   0  0  0  0  0  0  0  0  0  0  0  0
   27.2772    1.3835    0.0000 H   0  0  0  0  0  0  0  0  0  0  0  0
   28.1941    0.8297    0.0000 H   0  0  0  0  0  0  0  0  0  0  0  0
   28.5097   -1.5300    0.0000 H   0  0  0  0  0  0  0  0  0  0  0  0
   29.4708    0.0547    0.0000 H   0  0  0  0  0  0  0  0  0  0  0  0
   29.4477   -1.0151    0.0000 H   0  0  0  0  0  0  0  0  0  0  0  0
  1  2  1  0  0  0  0
  1 24  1  0  0  0  0
  2  3  1  0  0  0  0
  2 25  1  0  0  0  0
  2 26  1  0  0  0  0
  3  4  1  0  0  0  0
  3 27  1  0  0  0  0
  3 28  1  0  0  0  0
  4  5  1  0  0  0  0
  4 29  1  0  0  0  0
  4 30  1  0  0  0  0
  5  6  1  0  0  0  0
  5 31  1  0  0  0  0
  5 32  1  0  0  0  0
  6  7  1  0  0  0  0
  6 33  1  0  0  0  0
  6 34  1  0  0  0  0
  7  8  1  0  0  0  0
  7 35  1  0  0  0  0
  7 36  1  0  0  0  0
  8  9  1  0  0  0  0
  8 37  1  0  0  0  0
  8 38  1  0  0  0  0
  9 10  1  0  0  0  0
  9 39  1  0  0  0  0
  9 40  1  0  0  0  0
 10 11  1  0  0  0  0
 10 41  1  0  0  0  0
 10 42  1  0  0  0  0
 11 12  1  0  0  0  0
 11 43  1  0  0  0  0
 11 44  1  0  0  0  0
 12 13  1  0  0  0  0
 12 45  1  0  0  0  0
 12 46  1  0  0  0  0
 13 14  1  0  0  0  0
 13 47  1  0  0  0  0
 13 48  1  0  0  0  0
 14 15  1  0  0  0  0
 14 49  1  0  0  0  0
 14 50  1  0  0  0  0
 15 16  1  0  0  0  0
 15 51  1  0  0  0  0
 15 52  1  0  0  0  0
 16 17  1  0  0  0  0
 16 53  1  0  0  0  0
 16 54  1  0  0  0  0
 17 18  1  0  0  0  0
 17 55  1  0  0  0  0
 17 56  1  0  0  0  0
 18 19  1  0  0  0  0
 18 57  1  0  0  0  0
 18 58  1  0  0  0  0
 19 20  1  0  0  0  0
 19 59  1  0  0  0  0
 19 60  1  0  0  0  0
 20 21  1  0  0  0  0
 20 61  1  0  0  0  0
 20 62  1  0  0  0  0
 21 22  1  0  0  0  0
 21 63  1  0  0  0  0
 21 64  1  0  0  0  0
 22 23  1  0  0  0  0
 22 65  1  0  0  0  0
 22 66  1  0  0  0  0
 23 67  1  0  0  0  0
 23 68  1  0  0  0  0
 23 69  1  0  0  0  0
M  END
>  <Molecule Name>
Behenic alcohol

$$$$
7,11,15-trimethyl-3-methylenhexadecan-1,2-diol
 OpenBabel02222300512D

 62 61  0  0  0  0  0  0  0  0999 V2000
    0.0000    0.0000    0.0000 O   0  0  0  0  0  0  0  0  0  0  0  0
   -0.0118   -1.4872    0.0000 C   0  0  3  0  0  0  0  0  0  0  0  0
   -1.3219   -2.2190    0.0000 C   0  0  0  0  0  0  0  0  0  0  0  0
    1.2747   -2.2190    0.0000 C   0  0  0  0  0  0  0  0  0  0  0  0
   -1.3337   -3.7062    0.0000 C   0  0  0  0  0  0  0  0  0  0  0  0
   -2.6321   -1.4636    0.0000 C   0  0  0  0  0  0  0  0  0  0  0  0
    2.5613   -1.4636    0.0000 O   0  0  0  0  0  0  0  0  0  0  0  0
   -3.9423   -2.1954    0.0000 C   0  0  0  0  0  0  0  0  0  0  0  0
   -5.2525   -1.4400    0.0000 C   0  0  0  0  0  0  0  0  0  0  0  0
   -6.5627   -2.1718    0.0000 C   0  0  3  0  0  0  0  0  0  0  0  0
   -7.8728   -1.4164    0.0000 C   0  0  0  0  0  0  0  0  0  0  0  0
   -6.5745   -3.6590    0.0000 C   0  0  0  0  0  0  0  0  0  0  0  0
   -9.1830   -2.1482    0.0000 C   0  0  0  0  0  0  0  0  0  0  0  0
  -10.4932   -1.3928    0.0000 C   0  0  0  0  0  0  0  0  0  0  0  0
  -11.8034   -2.1246    0.0000 C   0  0  3  0  0  0  0  0  0  0  0  0
  -13.1136   -1.3691    0.0000 C   0  0  0  0  0  0  0  0  0  0  0  0
  -11.8152   -3.6118    0.0000 C   0  0  0  0  0  0  0  0  0  0  0  0
  -14.4238   -2.1010    0.0000 C   0  0  0  0  0  0  0  0  0  0  0  0
  -15.7339   -1.3455    0.0000 C   0  0  0  0  0  0  0  0  0  0  0  0
  -17.0441   -2.0774    0.0000 C   0  0  0  0  0  0  0  0  0  0  0  0
  -17.0559   -3.5646    0.0000 C   0  0  0  0  0  0  0  0  0  0  0  0
  -18.3543   -1.3219    0.0000 C   0  0  0  0  0  0  0  0  0  0  0  0
    0.8439    0.4783    0.0000 H   0  0  0  0  0  0  0  0  0  0  0  0
   -0.9325   -0.9420    0.0000 H   0  0  0  0  0  0  0  0  0  0  0  0
    1.2820   -3.2890    0.0000 H   0  0  0  0  0  0  0  0  0  0  0  0
    2.2051   -2.7474    0.0000 H   0  0  0  0  0  0  0  0  0  0  0  0
   -2.2315   -4.2151    0.0000 H   0  0  0  0  0  0  0  0  0  0  0  0
   -0.4441   -4.2293    0.0000 H   0  0  0  0  0  0  0  0  0  0  0  0
   -2.6248   -0.3936    0.0000 H   0  0  0  0  0  0  0  0  0  0  0  0
   -3.5531   -0.9189    0.0000 H   0  0  0  0  0  0  0  0  0  0  0  0
    3.4049   -1.9425    0.0000 H   0  0  0  0  0  0  0  0  0  0  0  0
   -3.9496   -3.2654    0.0000 H   0  0  0  0  0  0  0  0  0  0  0  0
   -4.8706   -2.7275    0.0000 H   0  0  0  0  0  0  0  0  0  0  0  0
   -5.2452   -0.3700    0.0000 H   0  0  0  0  0  0  0  0  0  0  0  0
   -6.1735   -0.8953    0.0000 H   0  0  0  0  0  0  0  0  0  0  0  0
   -6.5554   -1.1018    0.0000 H   0  0  0  0  0  0  0  0  0  0  0  0
   -7.8655   -0.3464    0.0000 H   0  0  0  0  0  0  0  0  0  0  0  0
   -8.7938   -0.8717    0.0000 H   0  0  0  0  0  0  0  0  0  0  0  0
   -7.5054   -4.1866    0.0000 H   0  0  0  0  0  0  0  0  0  0  0  0
   -5.6521   -4.2013    0.0000 H   0  0  0  0  0  0  0  0  0  0  0  0
   -6.5830   -4.7290    0.0000 H   0  0  0  0  0  0  0  0  0  0  0  0
   -9.1903   -3.2182    0.0000 H   0  0  0  0  0  0  0  0  0  0  0  0
  -10.1113   -2.6803    0.0000 H   0  0  0  0  0  0  0  0  0  0  0  0
  -10.4859   -0.3228    0.0000 H   0  0  0  0  0  0  0  0  0  0  0  0
  -11.4142   -0.8481    0.0000 H   0  0  0  0  0  0  0  0  0  0  0  0
  -11.7961   -1.0546    0.0000 H   0  0  0  0  0  0  0  0  0  0  0  0
  -13.1063   -0.2991    0.0000 H   0  0  0  0  0  0  0  0  0  0  0  0
  -14.0346   -0.8244    0.0000 H   0  0  0  0  0  0  0  0  0  0  0  0
  -12.7461   -4.1394    0.0000 H   0  0  0  0  0  0  0  0  0  0  0  0
  -10.8928   -4.1541    0.0000 H   0  0  0  0  0  0  0  0  0  0  0  0
  -11.8237   -4.6818    0.0000 H   0  0  0  0  0  0  0  0  0  0  0  0
  -14.4311   -3.1710    0.0000 H   0  0  0  0  0  0  0  0  0  0  0  0
  -15.3521   -2.6331    0.0000 H   0  0  0  0  0  0  0  0  0  0  0  0
  -15.7266   -0.2755    0.0000 H   0  0  0  0  0  0  0  0  0  0  0  0
  -16.6549   -0.8008    0.0000 H   0  0  0  0  0  0  0  0  0  0  0  0
  -17.9727   -2.6090    0.0000 H   0  0  0  0  0  0  0  0  0  0  0  0
  -17.9868   -4.0922    0.0000 H   0  0  0  0  0  0  0  0  0  0  0  0
  -16.1335   -4.1069    0.0000 H   0  0  0  0  0  0  0  0  0  0  0  0
  -17.0644   -4.6346    0.0000 H   0  0  0  0  0  0  0  0  0  0  0  0
  -18.3549   -0.2519    0.0000 H   0  0  0  0  0  0  0  0  0  0  0  0
  -19.2807   -1.8574    0.0000 H   0  0  0  0  0  0  0  0  0  0  0  0
  -19.2812   -0.7874    0.0000 H   0  0  0  0  0  0  0  0  0  0  0  0
  1  2  1  0  0  0  0
  1 23  1  0  0  0  0
  2  3  1  0  0  0  0
  2  4  1  0  0  0  0
  2 24  1  0  0  0  0
  3  5  2  0  0  0  0
  3  6  1  0  0  0  0
  4  7  1  0  0  0  0
  4 25  1  0  0  0  0
  4 26  1  0  0  0  0
  5 27  1  0  0  0  0
  5 28  1  0  0  0  0
  6  8  1  0  0  0  0
  6 29  1  0  0  0  0
  6 30  1  0  0  0  0
  7 31  1  0  0  0  0
  8  9  1  0  0  0  0
  8 32  1  0  0  0  0
  8 33  1  0  0  0  0
  9 10  1  0  0  0  0
  9 34  1  0  0  0  0
  9 35  1  0  0  0  0
 10 11  1  0  0  0  0
 10 12  1  0  0  0  0
 10 36  1  0  0  0  0
 11 13  1  0  0  0  0
 11 37  1  0  0  0  0
 11 38  1  0  0  0  0
 12 39  1  0  0  0  0
 12 40  1  0  0  0  0
 12 41  1  0  0  0  0
 13 14  1  0  0  0  0
 13 42  1  0  0  0  0
 13 43  1  0  0  0  0
 14 15  1  0  0  0  0
 14 44  1  0  0  0  0
 14 45  1  0  0  0  0
 15 16  1  0  0  0  0
 15 17  1  0  0  0  0
 15 46  1  0  0  0  0
 16 18  1  0  0  0  0
 16 47  1  0  0  0  0
 16 48  1  0  0  0  0
 17 49  1  0  0  0  0
 17 50  1  0  0  0  0
 17 51  1  0  0  0  0
 18 19  1  0  0  0  0
 18 52  1  0  0  0  0
 18 53  1  0  0  0  0
 19 20  1  0  0  0  0
 19 54  1  0  0  0  0
 19 55  1  0  0  0  0
 20 21  1  0  0  0  0
 20 22  1  0  0  0  0
 20 56  1  0  0  0  0
 21 57  1  0  0  0  0
 21 58  1  0  0  0  0
 21 59  1  0  0  0  0
 22 60  1  0  0  0  0
 22 61  1  0  0  0  0
 22 62  1  0  0  0  0
M  END
>  <Molecule Name>
7,11,15-trimethyl-3-methylenhexadecan-1,2-diol

$$$$
D-Erythro-pentose,2-deoxy
 OpenBabel02222300512D

 19 18  0  0  0  0  0  0  0  0999 V2000
    0.0000    0.0000    0.0000 O   0  0  0  0  0  0  0  0  0  0  0  0
    1.2919    0.7704    0.0000 C   0  0  0  0  0  0  0  0  0  0  0  0
    2.5838    0.0237    0.0000 C   0  0  0  0  0  0  0  0  0  0  0  0
    3.8758    0.7941    0.0000 C   0  0  3  0  0  0  0  0  0  0  0  0
    3.8639    2.3112    0.0000 O   0  0  0  0  0  0  0  0  0  0  0  0
    5.1677    0.0474    0.0000 C   0  0  3  0  0  0  0  0  0  0  0  0
    5.1559   -1.4460    0.0000 O   0  0  0  0  0  0  0  0  0  0  0  0
    6.4597    0.8178    0.0000 C   0  0  0  0  0  0  0  0  0  0  0  0
    7.7516    0.0711    0.0000 O   0  0  0  0  0  0  0  0  0  0  0  0
    1.2849    1.8024    0.0000 H   0  0  0  0  0  0  0  0  0  0  0  0
    2.5911   -1.0463    0.0000 H   0  0  0  0  0  0  0  0  0  0  0  0
    3.5160   -0.5016    0.0000 H   0  0  0  0  0  0  0  0  0  0  0  0
    2.9433    1.3189    0.0000 H   0  0  0  0  0  0  0  0  0  0  0  0
    4.7001    2.8028    0.0000 H   0  0  0  0  0  0  0  0  0  0  0  0
    4.2388   -0.4837    0.0000 H   0  0  0  0  0  0  0  0  0  0  0  0
    4.3120   -1.9243    0.0000 H   0  0  0  0  0  0  0  0  0  0  0  0
    6.4524    1.8878    0.0000 H   0  0  0  0  0  0  0  0  0  0  0  0
    7.3846    1.3557    0.0000 H   0  0  0  0  0  0  0  0  0  0  0  0
    7.7511   -0.8989    0.0000 H   0  0  0  0  0  0  0  0  0  0  0  0
  1  2  2  0  0  0  0
  2  3  1  0  0  0  0
  2 10  1  0  0  0  0
  3  4  1  0  0  0  0
  3 11  1  0  0  0  0
  3 12  1  0  0  0  0
  4  5  1  0  0  0  0
  4  6  1  0  0  0  0
  4 13  1  0  0  0  0
  5 14  1  0  0  0  0
  6  7  1  0  0  0  0
  6  8  1  0  0  0  0
  6 15  1  0  0  0  0
  7 16  1  0  0  0  0
  8  9  1  0  0  0  0
  8 17  1  0  0  0  0
  8 18  1  0  0  0  0
  9 19  1  0  0  0  0
M  END
>  <Molecule Name>
D-Erythro-pentose,2-deoxy

$$$$
Asparagine
 OpenBabel02222300512D

 17 16  0  0  0  0  0  0  0  0999 V2000
    0.0000    0.0000    0.0000 O   0  0  0  0  0  0  0  0  0  0  0  0
   -0.0118   -1.4875    0.0000 C   0  0  0  0  0  0  0  0  0  0  0  0
    1.2750   -2.2313    0.0000 O   0  0  0  0  0  0  0  0  0  0  0  0
   -1.3222   -2.2313    0.0000 C   0  0  1  0  0  0  0  0  0  0  0  0
   -1.3340   -3.7188    0.0000 N   0  0  0  0  0  0  0  0  0  0  0  0
   -2.6327   -1.4639    0.0000 C   0  0  0  0  0  0  0  0  0  0  0  0
   -3.9431   -2.2077    0.0000 C   0  0  0  0  0  0  0  0  0  0  0  0
   -3.9549   -3.6952    0.0000 O   0  0  0  0  0  0  0  0  0  0  0  0
   -5.2536   -1.4403    0.0000 N   0  0  0  0  0  0  0  0  0  0  0  0
    1.2745   -3.1683    0.0000 H   0  0  0  0  0  0  0  0  0  0  0  0
   -0.3997   -2.7734    0.0000 H   0  0  0  0  0  0  0  0  0  0  0  0
   -2.2214   -4.2218    0.0000 H   0  0  0  0  0  0  0  0  0  0  0  0
   -0.4547   -4.2358    0.0000 H   0  0  0  0  0  0  0  0  0  0  0  0
   -2.6255   -0.3939    0.0000 H   0  0  0  0  0  0  0  0  0  0  0  0
   -3.5556   -0.9224    0.0000 H   0  0  0  0  0  0  0  0  0  0  0  0
   -5.2475   -0.4558    0.0000 H   0  0  0  0  0  0  0  0  0  0  0  0
   -6.1092   -1.9273    0.0000 H   0  0  0  0  0  0  0  0  0  0  0  0
  1  2  2  0  0  0  0
  2  3  1  0  0  0  0
  2  4  1  0  0  0  0
  3 10  1  0  0  0  0
  4  5  1  0  0  0  0
  4  6  1  0  0  0  0
  4 11  1  6  0  0  0
  5 12  1  0  0  0  0
  5 13  1  0  0  0  0
  6  7  1  0  0  0  0
  6 14  1  0  0  0  0
  6 15  1  0  0  0  0
  7  8  2  0  0  0  0
  7  9  1  0  0  0  0
  9 16  1  0  0  0  0
  9 17  1  0  0  0  0
M  END
>  <Molecule Name>
Asparagine

$$$$
Gallic acid
 OpenBabel02222300512D

 18 18  0  0  0  0  0  0  0  0999 V2000
    0.0000    0.0000    0.0000 O   0  0  0  0  0  0  0  0  0  0  0  0
   -0.0118   -1.4897    0.0000 C   0  0  0  0  0  0  0  0  0  0  0  0
    1.2769   -2.2228    0.0000 O   0  0  0  0  0  0  0  0  0  0  0  0
   -1.3242   -2.2228    0.0000 C   0  0  0  0  0  0  0  0  0  0  0  0
   -1.3360   -3.7126    0.0000 C   0  0  0  0  0  0  0  0  0  0  0  0
   -2.6366   -1.4661    0.0000 C   0  0  0  0  0  0  0  0  0  0  0  0
   -2.6485   -4.4457    0.0000 C   0  0  0  0  0  0  0  0  0  0  0  0
   -3.9491   -2.1992    0.0000 C   0  0  0  0  0  0  0  0  0  0  0  0
   -2.6603   -5.9354    0.0000 O   0  0  0  0  0  0  0  0  0  0  0  0
   -3.9609   -3.6889    0.0000 C   0  0  0  0  0  0  0  0  0  0  0  0
   -5.2615   -1.4424    0.0000 O   0  0  0  0  0  0  0  0  0  0  0  0
   -5.2733   -4.4220    0.0000 O   0  0  0  0  0  0  0  0  0  0  0  0
    1.2829   -3.1598    0.0000 H   0  0  0  0  0  0  0  0  0  0  0  0
   -0.4480   -4.2385    0.0000 H   0  0  0  0  0  0  0  0  0  0  0  0
   -2.6296   -0.4341    0.0000 H   0  0  0  0  0  0  0  0  0  0  0  0
   -3.4755   -6.3975    0.0000 H   0  0  0  0  0  0  0  0  0  0  0  0
   -5.2620   -0.5054    0.0000 H   0  0  0  0  0  0  0  0  0  0  0  0
   -6.0780   -3.9420    0.0000 H   0  0  0  0  0  0  0  0  0  0  0  0
  1  2  2  0  0  0  0
  2  3  1  0  0  0  0
  2  4  1  0  0  0  0
  3 13  1  0  0  0  0
  4  5  2  0  0  0  0
  4  6  1  0  0  0  0
  5  7  1  0  0  0  0
  5 14  1  0  0  0  0
  6  8  2  0  0  0  0
  6 15  1  0  0  0  0
  7  9  1  0  0  0  0
  7 10  2  0  0  0  0
  8 11  1  0  0  0  0
  8 10  1  0  0  0  0
  9 16  1  0  0  0  0
 10 12  1  0  0  0  0
 11 17  1  0  0  0  0
 12 18  1  0  0  0  0
M  END
>  <Molecule Name>
Gallic acid

$$$$
Ergosterol peroxide
 OpenBabel02222300512D

 75 79  0  0  0  0  0  0  0  0999 V2000
    0.0000    0.0000    0.0000 O   0  0  0  0  0  0  0  0  0  0  0  0
   -1.0006   -0.5666    0.0000 O   0  0  0  0  0  0  0  0  0  0  0  0
    0.4943    1.0368    0.0000 C   0  0  2  0  0  0  0  0  0  0  0  0
   -2.1580   -0.4822    0.0000 C   0  0  1  0  0  0  0  0  0  0  0  0
    0.4822   -0.4822    0.0000 C   0  0  0  0  0  0  0  0  0  0  0  0
   -0.8439    1.8084    0.0000 C   0  0  1  0  0  0  0  0  0  0  0  0
    1.8084    1.8084    0.0000 C   0  0  1  0  0  0  0  0  0  0  0  0
   -0.8439   -1.2297    0.0000 C   0  0  0  0  0  0  0  0  0  0  0  0
   -2.1701    1.0609    0.0000 C   0  0  1  0  0  0  0  0  0  0  0  0
   -3.4963   -1.2297    0.0000 C   0  0  0  0  0  0  0  0  0  0  0  0
   -0.8560    3.3516    0.0000 C   0  0  0  0  0  0  0  0  0  0  0  0
    1.7964    3.3516    0.0000 C   0  0  2  0  0  0  0  0  0  0  0  0
    3.2552    1.3503    0.0000 C   0  0  0  0  0  0  0  0  0  0  0  0
   -3.5084    1.8325    0.0000 C   0  0  0  0  0  0  0  0  0  0  0  0
   -2.1822    2.6041    0.0000 C   0  0  0  0  0  0  0  0  0  0  0  0
   -4.8346   -0.4581    0.0000 C   0  0  2  0  0  0  0  0  0  0  0  0
    0.4581    4.1232    0.0000 C   0  0  0  0  0  0  0  0  0  0  0  0
    3.2431    3.8339    0.0000 C   0  0  2  0  0  0  0  0  0  0  0  0
    1.9410    4.8828    0.0000 C   0  0  0  0  0  0  0  0  0  0  0  0
    4.1474    2.6041    0.0000 C   0  0  0  0  0  0  0  0  0  0  0  0
   -4.8466    1.0850    0.0000 C   0  0  0  0  0  0  0  0  0  0  0  0
   -6.1728   -1.2056    0.0000 O   0  0  0  0  0  0  0  0  0  0  0  0
    3.7013    5.3048    0.0000 C   0  0  1  0  0  0  0  0  0  0  0  0
    5.1842    5.6303    0.0000 C   0  0  0  0  0  0  0  0  0  0  0  0
    2.6644    6.4501    0.0000 C   0  0  0  0  0  0  0  0  0  0  0  0
    5.6424    7.1012    0.0000 C   0  0  0  0  0  0  0  0  0  0  0  0
    7.1253    7.4267    0.0000 C   0  0  1  0  0  0  0  0  0  0  0  0
    7.5834    8.8976    0.0000 C   0  0  0  0  0  0  0  0  0  0  0  0
    8.1380    6.3055    0.0000 C   0  0  0  0  0  0  0  0  0  0  0  0
    6.5466   10.0429    0.0000 C   0  0  0  0  0  0  0  0  0  0  0  0
    9.0664    9.2231    0.0000 C   0  0  0  0  0  0  0  0  0  0  0  0
    1.3712   -1.0063    0.0000 H   0  0  0  0  0  0  0  0  0  0  0  0
    0.0805    2.3473    0.0000 H   0  0  0  0  0  0  0  0  0  0  0  0
    1.9281    0.7451    0.0000 H   0  0  0  0  0  0  0  0  0  0  0  0
   -0.8459   -2.2617    0.0000 H   0  0  0  0  0  0  0  0  0  0  0  0
   -3.5036   -2.2997    0.0000 H   0  0  0  0  0  0  0  0  0  0  0  0
   -4.4246   -1.7618    0.0000 H   0  0  0  0  0  0  0  0  0  0  0  0
   -1.7867    3.8796    0.0000 H   0  0  0  0  0  0  0  0  0  0  0  0
   -0.8640    4.4216    0.0000 H   0  0  0  0  0  0  0  0  0  0  0  0
    3.5947    0.3356    0.0000 H   0  0  0  0  0  0  0  0  0  0  0  0
    4.3135    1.1927    0.0000 H   0  0  0  0  0  0  0  0  0  0  0  0
   -3.5011    2.9025    0.0000 H   0  0  0  0  0  0  0  0  0  0  0  0
   -4.4294    2.3772    0.0000 H   0  0  0  0  0  0  0  0  0  0  0  0
   -1.2598    3.1463    0.0000 H   0  0  0  0  0  0  0  0  0  0  0  0
   -3.1130    3.1318    0.0000 H   0  0  0  0  0  0  0  0  0  0  0  0
   -2.1906    3.6741    0.0000 H   0  0  0  0  0  0  0  0  0  0  0  0
   -4.8419   -1.5281    0.0000 H   0  0  0  0  0  0  0  0  0  0  0  0
    0.4539    5.1932    0.0000 H   0  0  0  0  0  0  0  0  0  0  0  0
    1.3835    4.6603    0.0000 H   0  0  0  0  0  0  0  0  0  0  0  0
    2.9193    2.8141    0.0000 H   0  0  0  0  0  0  0  0  0  0  0  0
    2.9138    5.3283    0.0000 H   0  0  0  0  0  0  0  0  0  0  0  0
    1.0688    5.5026    0.0000 H   0  0  0  0  0  0  0  0  0  0  0  0
    2.0416    5.9481    0.0000 H   0  0  0  0  0  0  0  0  0  0  0  0
    5.2174    2.6124    0.0000 H   0  0  0  0  0  0  0  0  0  0  0  0
    4.6267    3.5607    0.0000 H   0  0  0  0  0  0  0  0  0  0  0  0
   -5.7715    1.6230    0.0000 H   0  0  0  0  0  0  0  0  0  0  0  0
   -5.7720    0.5479    0.0000 H   0  0  0  0  0  0  0  0  0  0  0  0
   -7.0059   -0.7087    0.0000 H   0  0  0  0  0  0  0  0  0  0  0  0
    2.6564    5.0745    0.0000 H   0  0  0  0  0  0  0  0  0  0  0  0
    5.8819    4.8699    0.0000 H   0  0  0  0  0  0  0  0  0  0  0  0
    2.9923    7.4686    0.0000 H   0  0  0  0  0  0  0  0  0  0  0  0
    1.6184    6.2248    0.0000 H   0  0  0  0  0  0  0  0  0  0  0  0
    1.9463    7.2433    0.0000 H   0  0  0  0  0  0  0  0  0  0  0  0
    4.9447    7.8616    0.0000 H   0  0  0  0  0  0  0  0  0  0  0  0
    6.7988    6.4077    0.0000 H   0  0  0  0  0  0  0  0  0  0  0  0
    7.9093    9.9168    0.0000 H   0  0  0  0  0  0  0  0  0  0  0  0
    7.8089    5.2874    0.0000 H   0  0  0  0  0  0  0  0  0  0  0  0
    9.1843    6.5296    0.0000 H   0  0  0  0  0  0  0  0  0  0  0  0
    8.8552    5.5115    0.0000 H   0  0  0  0  0  0  0  0  0  0  0  0
    6.8745   11.0614    0.0000 H   0  0  0  0  0  0  0  0  0  0  0  0
    5.5006    9.8176    0.0000 H   0  0  0  0  0  0  0  0  0  0  0  0
    5.8285   10.8361    0.0000 H   0  0  0  0  0  0  0  0  0  0  0  0
    9.7876    8.4327    0.0000 H   0  0  0  0  0  0  0  0  0  0  0  0
    9.3903   10.2429    0.0000 H   0  0  0  0  0  0  0  0  0  0  0  0
   10.1115    9.4525    0.0000 H   0  0  0  0  0  0  0  0  0  0  0  0
  1  2  1  0  0  0  0
  3  1  1  6  0  0  0
  3  5  1  0  0  0  0
  3  6  1  0  0  0  0
  3  7  1  0  0  0  0
  4  2  1  6  0  0  0
  4  8  1  0  0  0  0
  4  9  1  0  0  0  0
  4 10  1  0  0  0  0
  5  8  2  0  0  0  0
  5 32  1  0  0  0  0
  6 11  1  0  0  0  0
  6  9  1  0  0  0  0
  6 33  1  6  0  0  0
  7 12  1  0  0  0  0
  7 13  1  0  0  0  0
  7 34  1  6  0  0  0
  8 35  1  0  0  0  0
  9 14  1  0  0  0  0
  9 15  1  1  0  0  0
 10 16  1  0  0  0  0
 10 36  1  0  0  0  0
 10 37  1  0  0  0  0
 11 17  1  0  0  0  0
 11 38  1  0  0  0  0
 11 39  1  0  0  0  0
 12 18  1  0  0  0  0
 12 19  1  1  0  0  0
 12 17  1  0  0  0  0
 13 20  1  0  0  0  0
 13 40  1  0  0  0  0
 13 41  1  0  0  0  0
 14 21  1  0  0  0  0
 14 42  1  0  0  0  0
 14 43  1  0  0  0  0
 15 44  1  0  0  0  0
 15 45  1  0  0  0  0
 15 46  1  0  0  0  0
 16 22  1  0  0  0  0
 16 21  1  0  0  0  0
 16 47  1  6  0  0  0
 17 48  1  0  0  0  0
 17 49  1  0  0  0  0
 18 23  1  0  0  0  0
 18 20  1  0  0  0  0
 18 50  1  6  0  0  0
 19 51  1  0  0  0  0
 19 52  1  0  0  0  0
 19 53  1  0  0  0  0
 20 54  1  0  0  0  0
 20 55  1  0  0  0  0
 21 56  1  0  0  0  0
 21 57  1  0  0  0  0
 22 58  1  0  0  0  0
 23 24  1  0  0  0  0
 23 25  1  0  0  0  0
 23 59  1  1  0  0  0
 24 26  2  0  0  0  0
 24 60  1  0  0  0  0
 25 61  1  0  0  0  0
 25 62  1  0  0  0  0
 25 63  1  0  0  0  0
 26 27  1  0  0  0  0
 26 64  1  0  0  0  0
 27 28  1  0  0  0  0
 27 29  1  0  0  0  0
 27 65  1  6  0  0  0
 28 30  1  0  0  0  0
 28 31  1  0  0  0  0
 28 66  1  0  0  0  0
 29 67  1  0  0  0  0
 29 68  1  0  0  0  0
 29 69  1  0  0  0  0
 30 70  1  0  0  0  0
 30 71  1  0  0  0  0
 30 72  1  0  0  0  0
 31 73  1  0  0  0  0
 31 74  1  0  0  0  0
 31 75  1  0  0  0  0
M  END
>  <Molecule Name>
Ergosterol peroxide

$$$$
Triptotin F
 OpenBabel02222300513D

 80 84  0  0  0  0  0  0  0  0999 V2000
   -5.8235    0.3750   -0.1875 O   0  0  0  0  0  0  0  0  0  0  0  0
   -5.8210   -1.1246   -0.2163 C   0  0  0  0  0  0  0  0  0  0  0  0
   -7.1181   -1.8756   -0.2763 O   0  0  0  0  0  0  0  0  0  0  0  0
   -4.5216   -1.8732   -0.1854 C   0  0  1  0  0  0  0  0  0  0  0  0
   -3.2247   -1.1220   -0.1253 C   0  0  0  0  0  0  0  0  0  0  0  0
   -4.5193   -3.3729   -0.2142 C   0  0  0  0  0  0  0  0  0  0  0  0
   -4.1335   -0.4242   -0.1853 C   0  0  0  0  0  0  0  0  0  0  0  0
   -1.9252   -1.8706   -0.0941 C   0  0  2  0  0  0  0  0  0  0  0  0
   -3.2198   -4.1215   -0.1831 C   0  0  0  0  0  0  0  0  0  0  0  0
   -0.6282   -1.1195   -0.0341 C   0  0  1  0  0  0  0  0  0  0  0  0
   -1.9227   -3.3704   -0.1230 C   0  0  1  0  0  0  0  0  0  0  0  0
    0.6712   -1.8681   -0.0031 C   0  0  1  0  0  0  0  0  0  0  0  0
   -0.6306    0.3802   -0.0051 C   0  0  0  0  0  0  0  0  0  0  0  0
   -1.9277   -0.3708   -0.0651 C   0  0  0  0  0  0  0  0  0  0  0  0
   -0.6233   -4.1189   -0.0920 C   0  0  0  0  0  0  0  0  0  0  0  0
   -1.9205   -4.8701   -0.1520 C   0  0  0  0  0  0  0  0  0  0  0  0
    1.9682   -1.1170    0.0569 C   0  0  0  0  0  0  0  0  0  0  0  0
    0.6734   -3.3678   -0.0320 C   0  0  0  0  0  0  0  0  0  0  0  0
    2.1478   -2.1271    0.0436 C   0  0  0  0  0  0  0  0  0  0  0  0
    0.6663    1.1313    0.0549 C   0  0  0  0  0  0  0  0  0  0  0  0
    3.2676   -1.8656    0.0881 C   0  0  0  0  0  0  0  0  0  0  0  0
    1.9656    0.3826    0.0860 C   0  0  1  0  0  0  0  0  0  0  0  0
    4.5646   -1.1145    0.1481 C   0  0  1  0  0  0  0  0  0  0  0  0
    3.2627    1.1337    0.1461 C   0  0  0  0  0  0  0  0  0  0  0  0
    1.9656    1.8827    0.0861 C   0  0  0  0  0  0  0  0  0  0  0  0
    4.5622    0.3851    0.1771 C   0  0  0  0  0  0  0  0  0  0  0  0
    5.8640   -1.8632    0.1793 C   0  0  1  0  0  0  0  0  0  0  0  0
    3.2603    2.6335    0.1751 C   0  0  0  0  0  0  0  0  0  0  0  0
    5.8592    1.1362    0.2372 C   0  0  0  0  0  0  0  0  0  0  0  0
    5.8665   -3.3628    0.1503 O   0  0  0  0  0  0  0  0  0  0  0  0
    7.1610   -1.1121    0.2392 C   0  0  0  0  0  0  0  0  0  0  0  0
    4.5572    3.3846    0.2351 C   0  0  0  0  0  0  0  0  0  0  0  0
    5.8567    2.6361    0.2662 C   0  0  0  0  0  0  0  0  0  0  0  0
    7.1587    0.3877    0.2683 C   0  0  0  0  0  0  0  0  0  0  0  0
    4.5548    4.8845    0.2641 O   0  0  0  0  0  0  0  0  0  0  0  0
    7.1537    3.3872    0.3262 O   0  0  0  0  0  0  0  0  0  0  0  0
   -7.1167   -2.8124   -0.2943 H   0  0  0  0  0  0  0  0  0  0  0  0
   -3.2564   -0.5212    0.7596 H   0  0  0  0  0  0  0  0  0  0  0  0
   -3.1922   -0.6118   -1.0653 H   0  0  0  0  0  0  0  0  0  0  0  0
   -5.0229   -3.6654   -1.1118 H   0  0  0  0  0  0  0  0  0  0  0  0
   -4.9780   -3.6375    0.7156 H   0  0  0  0  0  0  0  0  0  0  0  0
   -5.0131    0.1806   -0.1113 H   0  0  0  0  0  0  0  0  0  0  0  0
   -3.6172   -0.1932   -1.0936 H   0  0  0  0  0  0  0  0  0  0  0  0
   -3.4934   -0.2265    0.6490 H   0  0  0  0  0  0  0  0  0  0  0  0
   -2.2601   -1.6136    0.8891 H   0  0  0  0  0  0  0  0  0  0  0  0
   -3.1881   -4.7222   -1.0680 H   0  0  0  0  0  0  0  0  0  0  0  0
   -3.2523   -4.6317    0.7569 H   0  0  0  0  0  0  0  0  0  0  0  0
   -1.1964    0.6716    0.8551 H   0  0  0  0  0  0  0  0  0  0  0  0
   -1.0234    0.6441   -0.9648 H   0  0  0  0  0  0  0  0  0  0  0  0
   -2.7394   -1.0667   -0.1070 H   0  0  0  0  0  0  0  0  0  0  0  0
   -1.9548    0.2611   -0.9281 H   0  0  0  0  0  0  0  0  0  0  0  0
   -2.0159    0.2273    0.8178 H   0  0  0  0  0  0  0  0  0  0  0  0
   -0.5917   -4.7196   -0.9769 H   0  0  0  0  0  0  0  0  0  0  0  0
   -0.6557   -4.6292    0.8479 H   0  0  0  0  0  0  0  0  0  0  0  0
   -0.9118   -5.2259   -0.1235 H   0  0  0  0  0  0  0  0  0  0  0  0
   -2.3934   -5.2102   -1.0496 H   0  0  0  0  0  0  0  0  0  0  0  0
   -2.4547   -5.2440    0.6963 H   0  0  0  0  0  0  0  0  0  0  0  0
    1.1779   -3.6930    0.8538 H   0  0  0  0  0  0  0  0  0  0  0  0
    1.1326   -3.5948   -0.9714 H   0  0  0  0  0  0  0  0  0  0  0  0
    2.6724   -1.1952    0.0800 H   0  0  0  0  0  0  0  0  0  0  0  0
    2.4428   -2.6686   -0.8309 H   0  0  0  0  0  0  0  0  0  0  0  0
    2.3816   -2.7023    0.9150 H   0  0  0  0  0  0  0  0  0  0  0  0
    0.6347    1.7321    0.9398 H   0  0  0  0  0  0  0  0  0  0  0  0
    0.6988    1.6415   -0.8850 H   0  0  0  0  0  0  0  0  0  0  0  0
    3.2693   -2.8974    0.0683 H   0  0  0  0  0  0  0  0  0  0  0  0
    4.5727   -0.6603   -0.8207 H   0  0  0  0  0  0  0  0  0  0  0  0
    2.9741    2.2394    0.1103 H   0  0  0  0  0  0  0  0  0  0  0  0
    1.4404    2.2393    0.9474 H   0  0  0  0  0  0  0  0  0  0  0  0
    1.4823    2.2394   -0.7994 H   0  0  0  0  0  0  0  0  0  0  0  0
    5.5271   -2.1736    1.1463 H   0  0  0  0  0  0  0  0  0  0  0  0
    2.3663    3.1485    0.1538 H   0  0  0  0  0  0  0  0  0  0  0  0
    6.1667   -3.6689   -0.7198 H   0  0  0  0  0  0  0  0  0  0  0  0
    7.4531   -0.8254   -0.7494 H   0  0  0  0  0  0  0  0  0  0  0  0
    7.9162   -1.7380    0.6668 H   0  0  0  0  0  0  0  0  0  0  0  0
    7.0389   -0.2372    0.8429 H   0  0  0  0  0  0  0  0  0  0  0  0
    6.9651   -0.6643    0.2411 H   0  0  0  0  0  0  0  0  0  0  0  0
    7.6884    0.6298    1.1659 H   0  0  0  0  0  0  0  0  0  0  0  0
    7.7496    0.6637   -0.5800 H   0  0  0  0  0  0  0  0  0  0  0  0
    3.7431    5.3522    0.2447 H   0  0  0  0  0  0  0  0  0  0  0  0
    7.9654    2.9196    0.3456 H   0  0  0  0  0  0  0  0  0  0  0  0
  1  2  2  0  0  0  0
  2  3  1  0  0  0  0
  3 37  1  0  0  0  0
  4  2  1  1  0  0  0
  4  5  1  0  0  0  0
  4  6  1  0  0  0  0
  4  7  1  0  0  0  0
  5  8  1  0  0  0  0
  5 38  1  0  0  0  0
  5 39  1  0  0  0  0
  6  9  1  0  0  0  0
  6 40  1  0  0  0  0
  6 41  1  0  0  0  0
  7 42  1  0  0  0  0
  7 43  1  0  0  0  0
  7 44  1  0  0  0  0
  8 10  1  0  0  0  0
  8 11  1  0  0  0  0
  8 45  1  1  0  0  0
  9 11  1  0  0  0  0
  9 46  1  0  0  0  0
  9 47  1  0  0  0  0
 10 12  1  0  0  0  0
 10 13  1  0  0  0  0
 10 14  1  1  0  0  0
 11 15  1  0  0  0  0
 11 16  1  1  0  0  0
 12 17  1  0  0  0  0
 12 18  1  0  0  0  0
 12 19  1  6  0  0  0
 13 20  1  0  0  0  0
 13 48  1  0  0  0  0
 13 49  1  0  0  0  0
 14 50  1  0  0  0  0
 14 51  1  0  0  0  0
 14 52  1  0  0  0  0
 15 18  1  0  0  0  0
 15 53  1  0  0  0  0
 15 54  1  0  0  0  0
 16 55  1  0  0  0  0
 16 56  1  0  0  0  0
 16 57  1  0  0  0  0
 17 21  2  0  0  0  0
 17 22  1  0  0  0  0
 18 58  1  0  0  0  0
 18 59  1  0  0  0  0
 19 60  1  0  0  0  0
 19 61  1  0  0  0  0
 19 62  1  0  0  0  0
 20 22  1  0  0  0  0
 20 63  1  0  0  0  0
 20 64  1  0  0  0  0
 21 23  1  0  0  0  0
 21 65  1  0  0  0  0
 22 24  1  0  0  0  0
 22 25  1  6  0  0  0
 23 26  1  0  0  0  0
 23 27  1  0  0  0  0
 23 66  1  6  0  0  0
 24 28  1  0  0  0  0
 24 26  2  0  0  0  0
 25 67  1  0  0  0  0
 25 68  1  0  0  0  0
 25 69  1  0  0  0  0
 26 29  1  0  0  0  0
 27 30  1  0  0  0  0
 27 31  1  0  0  0  0
 27 70  1  1  0  0  0
 28 32  2  0  0  0  0
 28 71  1  0  0  0  0
 29 33  2  0  0  0  0
 29 34  1  0  0  0  0
 30 72  1  0  0  0  0
 31 73  1  0  0  0  0
 31 74  1  0  0  0  0
 31 75  1  0  0  0  0
 32 35  1  0  0  0  0
 32 33  1  0  0  0  0
 33 36  1  0  0  0  0
 34 76  1  0  0  0  0
 34 77  1  0  0  0  0
 34 78  1  0  0  0  0
 35 79  1  0  0  0  0
 36 80  1  0  0  0  0
M  END
>  <Molecule Name>
Triptotin F

$$$$
Syringic acid
 OpenBabel02222300512D

 24 24  0  0  0  0  0  0  0  0999 V2000
    0.0000    0.0000    0.0000 O   0  0  0  0  0  0  0  0  0  0  0  0
   -0.0117   -1.4851    0.0000 C   0  0  0  0  0  0  0  0  0  0  0  0
    1.2730   -2.2277    0.0000 O   0  0  0  0  0  0  0  0  0  0  0  0
   -1.3201   -2.2277    0.0000 C   0  0  0  0  0  0  0  0  0  0  0  0
   -2.6285   -1.4616    0.0000 C   0  0  0  0  0  0  0  0  0  0  0  0
   -1.3319   -3.7129    0.0000 C   0  0  0  0  0  0  0  0  0  0  0  0
   -3.9369   -2.2041    0.0000 C   0  0  0  0  0  0  0  0  0  0  0  0
   -2.6403   -4.4555    0.0000 C   0  0  0  0  0  0  0  0  0  0  0  0
   -5.2452   -1.4380    0.0000 O   0  0  0  0  0  0  0  0  0  0  0  0
   -3.9486   -3.6893    0.0000 C   0  0  0  0  0  0  0  0  0  0  0  0
   -2.6521   -5.9407    0.0000 O   0  0  0  0  0  0  0  0  0  0  0  0
   -6.5536   -2.1806    0.0000 C   0  0  0  0  0  0  0  0  0  0  0  0
   -5.2570   -4.4319    0.0000 O   0  0  0  0  0  0  0  0  0  0  0  0
   -3.9604   -6.6833    0.0000 C   0  0  0  0  0  0  0  0  0  0  0  0
    1.2725   -3.1647    0.0000 H   0  0  0  0  0  0  0  0  0  0  0  0
   -2.6215   -0.4296    0.0000 H   0  0  0  0  0  0  0  0  0  0  0  0
   -0.4421   -4.2357    0.0000 H   0  0  0  0  0  0  0  0  0  0  0  0
   -7.4763   -1.6388    0.0000 H   0  0  0  0  0  0  0  0  0  0  0  0
   -6.5615   -3.2506    0.0000 H   0  0  0  0  0  0  0  0  0  0  0  0
   -7.4842   -2.7088    0.0000 H   0  0  0  0  0  0  0  0  0  0  0  0
   -6.0650   -3.9574    0.0000 H   0  0  0  0  0  0  0  0  0  0  0  0
   -4.8831   -6.1415    0.0000 H   0  0  0  0  0  0  0  0  0  0  0  0
   -3.9683   -7.7533    0.0000 H   0  0  0  0  0  0  0  0  0  0  0  0
   -4.8909   -7.2115    0.0000 H   0  0  0  0  0  0  0  0  0  0  0  0
  1  2  2  0  0  0  0
  2  3  1  0  0  0  0
  2  4  1  0  0  0  0
  3 15  1  0  0  0  0
  4  5  2  0  0  0  0
  4  6  1  0  0  0  0
  5  7  1  0  0  0  0
  5 16  1  0  0  0  0
  6  8  2  0  0  0  0
  6 17  1  0  0  0  0
  7  9  1  0  0  0  0
  7 10  2  0  0  0  0
  8 11  1  0  0  0  0
  8 10  1  0  0  0  0
  9 12  1  0  0  0  0
 10 13  1  0  0  0  0
 11 14  1  0  0  0  0
 12 18  1  0  0  0  0
 12 19  1  0  0  0  0
 12 20  1  0  0  0  0
 13 21  1  0  0  0  0
 14 22  1  0  0  0  0
 14 23  1  0  0  0  0
 14 24  1  0  0  0  0
M  END
>  <Molecule Name>
Syringic acid

$$$$
Pyrogallol gallate
 OpenBabel02222300512D

 31 32  0  0  0  0  0  0  0  0999 V2000
    0.0000    0.0000    0.0000 O   0  0  0  0  0  0  0  0  0  0  0  0
   -0.0118   -1.4914    0.0000 C   0  0  0  0  0  0  0  0  0  0  0  0
   -1.3257   -2.2253    0.0000 O   0  0  0  0  0  0  0  0  0  0  0  0
    1.2783   -2.2253    0.0000 C   0  0  0  0  0  0  0  0  0  0  0  0
   -2.6396   -1.4677    0.0000 C   0  0  0  0  0  0  0  0  0  0  0  0
    2.5685   -1.4677    0.0000 C   0  0  0  0  0  0  0  0  0  0  0  0
    1.2665   -3.7167    0.0000 C   0  0  0  0  0  0  0  0  0  0  0  0
   -3.9535   -2.2016    0.0000 C   0  0  0  0  0  0  0  0  0  0  0  0
   -2.6514    0.0473    0.0000 C   0  0  0  0  0  0  0  0  0  0  0  0
    3.8588   -2.2016    0.0000 C   0  0  0  0  0  0  0  0  0  0  0  0
    2.5567   -4.4506    0.0000 C   0  0  0  0  0  0  0  0  0  0  0  0
   -3.9653   -3.6930    0.0000 O   0  0  0  0  0  0  0  0  0  0  0  0
   -5.2673   -1.4440    0.0000 C   0  0  0  0  0  0  0  0  0  0  0  0
   -3.9653    0.8049    0.0000 C   0  0  0  0  0  0  0  0  0  0  0  0
    5.1490   -1.4440    0.0000 O   0  0  0  0  0  0  0  0  0  0  0  0
    3.8469   -3.6930    0.0000 C   0  0  0  0  0  0  0  0  0  0  0  0
    2.5449   -5.9420    0.0000 O   0  0  0  0  0  0  0  0  0  0  0  0
   -6.5812   -2.1779    0.0000 O   0  0  0  0  0  0  0  0  0  0  0  0
   -5.2792    0.0710    0.0000 C   0  0  0  0  0  0  0  0  0  0  0  0
    5.1371   -4.4269    0.0000 O   0  0  0  0  0  0  0  0  0  0  0  0
   -6.5931    0.8285    0.0000 O   0  0  0  0  0  0  0  0  0  0  0  0
    2.5614   -0.4357    0.0000 H   0  0  0  0  0  0  0  0  0  0  0  0
    0.3724   -4.2320    0.0000 H   0  0  0  0  0  0  0  0  0  0  0  0
   -1.7598    0.5670    0.0000 H   0  0  0  0  0  0  0  0  0  0  0  0
   -4.7804   -4.1551    0.0000 H   0  0  0  0  0  0  0  0  0  0  0  0
   -3.9583    1.8369    0.0000 H   0  0  0  0  0  0  0  0  0  0  0  0
    5.9639   -1.9065    0.0000 H   0  0  0  0  0  0  0  0  0  0  0  0
    1.7298   -6.4041    0.0000 H   0  0  0  0  0  0  0  0  0  0  0  0
   -7.3859   -1.6979    0.0000 H   0  0  0  0  0  0  0  0  0  0  0  0
    5.1431   -5.3639    0.0000 H   0  0  0  0  0  0  0  0  0  0  0  0
   -6.5937    1.7655    0.0000 H   0  0  0  0  0  0  0  0  0  0  0  0
  1  2  2  0  0  0  0
  2  3  1  0  0  0  0
  2  4  1  0  0  0  0
  3  5  1  0  0  0  0
  4  6  2  0  0  0  0
  4  7  1  0  0  0  0
  5  8  2  0  0  0  0
  5  9  1  0  0  0  0
  6 10  1  0  0  0  0
  6 22  1  0  0  0  0
  7 11  2  0  0  0  0
  7 23  1  0  0  0  0
  8 12  1  0  0  0  0
  8 13  1  0  0  0  0
  9 14  2  0  0  0  0
  9 24  1  0  0  0  0
 10 15  1  0  0  0  0
 10 16  2  0  0  0  0
 11 17  1  0  0  0  0
 11 16  1  0  0  0  0
 12 25  1  0  0  0  0
 13 18  1  0  0  0  0
 13 19  2  0  0  0  0
 14 19  1  0  0  0  0
 14 26  1  0  0  0  0
 15 27  1  0  0  0  0
 16 20  1  0  0  0  0
 17 28  1  0  0  0  0
 18 29  1  0  0  0  0
 19 21  1  0  0  0  0
 20 30  1  0  0  0  0
 21 31  1  0  0  0  0
M  END
>  <Molecule Name>
Pyrogallol gallate

$$$$
Yohimbic acid
 OpenBabel02222300513D

 49 53  0  0  0  0  0  0  0  0999 V2000
    1.3661   -2.2127   -0.3901 O   0  0  0  0  0  0  0  0  0  0  0  0
    2.3328   -1.8287   -0.3901 C   0  0  0  0  0  0  0  0  0  0  0  0
    2.9539   -2.6632   -0.3900 O   0  0  0  0  0  0  0  0  0  0  0  0
    2.4837   -0.7995   -0.3900 C   0  0  2  0  0  0  0  0  0  0  0  0
    3.5206   -0.7314   -0.4376 C   0  0  2  0  0  0  0  0  0  0  0  0
    1.9140    0.0531   -0.2151 C   0  0  1  0  0  0  0  0  0  0  0  0
    4.1416   -1.5658   -0.4376 O   0  0  0  0  0  0  0  0  0  0  0  0
    3.9877    0.1892   -0.3102 C   0  0  0  0  0  0  0  0  0  0  0  0
    2.3811    0.9737   -0.0877 C   0  0  1  0  0  0  0  0  0  0  0  0
    0.8770   -0.0149   -0.1676 C   0  0  0  0  0  0  0  0  0  0  0  0
    3.4180    1.0417   -0.1352 C   0  0  0  0  0  0  0  0  0  0  0  0
    1.8114    1.8262    0.0871 C   0  0  0  0  0  0  0  0  0  0  0  0
    0.3073    0.8376    0.0072 C   0  0  2  0  0  0  0  0  0  0  0  0
    0.7745    1.7583    0.1347 N   0  0  2  0  0  0  0  0  0  0  0  0
   -0.7295    0.7696    0.0548 C   0  0  0  0  0  0  0  0  0  0  0  0
    0.2047    2.6109    0.3096 C   0  0  0  0  0  0  0  0  0  0  0  0
   -1.3793   -0.0366   -0.0430 N   0  0  0  0  0  0  0  0  0  0  0  0
   -1.2993    1.6222    0.2297 C   0  0  0  0  0  0  0  0  0  0  0  0
   -0.8321    2.5428    0.3571 C   0  0  0  0  0  0  0  0  0  0  0  0
   -2.3508    0.3175    0.0713 C   0  0  0  0  0  0  0  0  0  0  0  0
   -2.3012    1.3428    0.2399 C   0  0  0  0  0  0  0  0  0  0  0  0
   -3.2739   -0.1609    0.0439 C   0  0  0  0  0  0  0  0  0  0  0  0
   -3.1749    1.8896    0.3811 C   0  0  0  0  0  0  0  0  0  0  0  0
   -4.1476    0.3857    0.1849 C   0  0  0  0  0  0  0  0  0  0  0  0
   -4.0982    1.4110    0.3535 C   0  0  0  0  0  0  0  0  0  0  0  0
    3.8846   -2.5545   -0.3900 H   0  0  0  0  0  0  0  0  0  0  0  0
    1.5377   -0.4749   -0.7704 H   0  0  0  0  0  0  0  0  0  0  0  0
    3.2211   -0.8370   -1.4594 H   0  0  0  0  0  0  0  0  0  0  0  0
    2.7171   -0.6519   -0.2680 H   0  0  0  0  0  0  0  0  0  0  0  0
    4.5434   -1.6698    0.4391 H   0  0  0  0  0  0  0  0  0  0  0  0
    4.5545    0.3735   -1.1988 H   0  0  0  0  0  0  0  0  0  0  0  0
    4.5312    0.0649    0.6031 H   0  0  0  0  0  0  0  0  0  0  0  0
    2.1514    1.6769    0.6854 H   0  0  0  0  0  0  0  0  0  0  0  0
    0.6484   -0.7054    0.6171 H   0  0  0  0  0  0  0  0  0  0  0  0
    0.6030   -0.2938   -1.1636 H   0  0  0  0  0  0  0  0  0  0  0  0
    3.6466    1.7324   -0.9198 H   0  0  0  0  0  0  0  0  0  0  0  0
    3.6920    1.3204    0.8609 H   0  0  0  0  0  0  0  0  0  0  0  0
    2.0400    2.5167   -0.6977 H   0  0  0  0  0  0  0  0  0  0  0  0
    2.0855    2.1051    1.0831 H   0  0  0  0  0  0  0  0  0  0  0  0
    0.2621    0.6503   -1.0453 H   0  0  0  0  0  0  0  0  0  0  0  0
    0.4333    3.3015   -0.4751 H   0  0  0  0  0  0  0  0  0  0  0  0
    0.4787    2.8898    1.3056 H   0  0  0  0  0  0  0  0  0  0  0  0
   -1.1204   -0.9710   -0.2138 H   0  0  0  0  0  0  0  0  0  0  0  0
   -1.2193    3.1930   -0.3994 H   0  0  0  0  0  0  0  0  0  0  0  0
   -1.0483    2.7894    1.3756 H   0  0  0  0  0  0  0  0  0  0  0  0
   -3.3230   -1.1781   -0.1232 H   0  0  0  0  0  0  0  0  0  0  0  0
   -3.1257    2.9067    0.5485 H   0  0  0  0  0  0  0  0  0  0  0  0
   -5.0634   -0.0892    0.1575 H   0  0  0  0  0  0  0  0  0  0  0  0
   -4.9650    1.9533    0.4934 H   0  0  0  0  0  0  0  0  0  0  0  0
  1  2  2  0  0  0  0
  2  3  1  0  0  0  0
  2  4  1  0  0  0  0
  3 26  1  0  0  0  0
  4  5  1  0  0  0  0
  4  6  1  0  0  0  0
  4 27  1  6  0  0  0
  5  7  1  0  0  0  0
  5  8  1  0  0  0  0
  5 28  1  6  0  0  0
  6  9  1  0  0  0  0
  6 10  1  0  0  0  0
  6 29  1  1  0  0  0
  7 30  1  0  0  0  0
  8 11  1  0  0  0  0
  8 31  1  0  0  0  0
  8 32  1  0  0  0  0
  9 12  1  0  0  0  0
  9 11  1  0  0  0  0
  9 33  1  1  0  0  0
 10 13  1  0  0  0  0
 10 34  1  0  0  0  0
 10 35  1  0  0  0  0
 11 36  1  0  0  0  0
 11 37  1  0  0  0  0
 12 38  1  0  0  0  0
 12 39  1  0  0  0  0
 13 15  1  0  0  0  0
 13 14  1  0  0  0  0
 13 40  1  6  0  0  0
 14 12  1  6  0  0  0
 14 16  1  0  0  0  0
 15 17  1  0  0  0  0
 15 18  2  0  0  0  0
 16 19  1  0  0  0  0
 16 41  1  0  0  0  0
 16 42  1  0  0  0  0
 17 20  1  0  0  0  0
 17 43  1  0  0  0  0
 18 21  1  0  0  0  0
 18 19  1  0  0  0  0
 19 44  1  0  0  0  0
 19 45  1  0  0  0  0
 20 22  1  0  0  0  0
 20 21  2  0  0  0  0
 21 23  1  0  0  0  0
 22 24  2  0  0  0  0
 22 46  1  0  0  0  0
 23 25  2  0  0  0  0
 23 47  1  0  0  0  0
 24 25  1  0  0  0  0
 24 48  1  0  0  0  0
 25 49  1  0  0  0  0
M  END
>  <Molecule Name>
Yohimbic acid

$$$$
5,7-Dihydrox-4'-methoxyisoflavone
 OpenBabel02222300512D

 33 35  0  0  0  0  0  0  0  0999 V2000
    0.0000    0.0000    0.0000 O   0  0  0  0  0  0  0  0  0  0  0  0
   -0.0117    1.5089    0.0000 C   0  0  0  0  0  0  0  0  0  0  0  0
   -1.3203    2.2751    0.0000 C   0  0  0  0  0  0  0  0  0  0  0  0
    1.2731    2.2751    0.0000 C   0  0  0  0  0  0  0  0  0  0  0  0
   -1.3320    3.7841    0.0000 C   0  0  0  0  0  0  0  0  0  0  0  0
   -2.6288    1.5325    0.0000 C   0  0  0  0  0  0  0  0  0  0  0  0
    2.5581    1.5325    0.0000 C   0  0  0  0  0  0  0  0  0  0  0  0
    1.2613    3.7841    0.0000 C   0  0  0  0  0  0  0  0  0  0  0  0
   -0.0471    4.5503    0.0000 O   0  0  0  0  0  0  0  0  0  0  0  0
   -2.6406    4.5503    0.0000 C   0  0  0  0  0  0  0  0  0  0  0  0
   -2.6406    0.0471    0.0000 O   0  0  0  0  0  0  0  0  0  0  0  0
   -3.9373    2.2987    0.0000 C   0  0  0  0  0  0  0  0  0  0  0  0
    3.8430    2.2987    0.0000 C   0  0  0  0  0  0  0  0  0  0  0  0
    2.5463    0.0471    0.0000 C   0  0  0  0  0  0  0  0  0  0  0  0
   -3.9491    3.8076    0.0000 C   0  0  0  0  0  0  0  0  0  0  0  0
    5.1279    1.5560    0.0000 C   0  0  0  0  0  0  0  0  0  0  0  0
    3.8312   -0.6955    0.0000 C   0  0  0  0  0  0  0  0  0  0  0  0
   -5.2576    4.5739    0.0000 O   0  0  0  0  0  0  0  0  0  0  0  0
    5.1162    0.0707    0.0000 C   0  0  0  0  0  0  0  0  0  0  0  0
    6.4011   -0.6719    0.0000 O   0  0  0  0  0  0  0  0  0  0  0  0
    7.6860    0.0943    0.0000 C   0  0  0  0  0  0  0  0  0  0  0  0
    2.1546    4.3008    0.0000 H   0  0  0  0  0  0  0  0  0  0  0  0
   -2.6337    5.5823    0.0000 H   0  0  0  0  0  0  0  0  0  0  0  0
   -3.4558   -0.4149    0.0000 H   0  0  0  0  0  0  0  0  0  0  0  0
   -4.8306    1.7819    0.0000 H   0  0  0  0  0  0  0  0  0  0  0  0
    3.8360    3.3307    0.0000 H   0  0  0  0  0  0  0  0  0  0  0  0
    1.6504   -0.4651    0.0000 H   0  0  0  0  0  0  0  0  0  0  0  0
    6.0238    2.0683    0.0000 H   0  0  0  0  0  0  0  0  0  0  0  0
    3.8382   -1.7275    0.0000 H   0  0  0  0  0  0  0  0  0  0  0  0
   -5.2518    5.5109    0.0000 H   0  0  0  0  0  0  0  0  0  0  0  0
    8.6201   -0.4276    0.0000 H   0  0  0  0  0  0  0  0  0  0  0  0
    7.6709    1.1642    0.0000 H   0  0  0  0  0  0  0  0  0  0  0  0
    8.6050    0.6423    0.0000 H   0  0  0  0  0  0  0  0  0  0  0  0
  1  2  2  0  0  0  0
  2  3  1  0  0  0  0
  2  4  1  0  0  0  0
  3  5  2  0  0  0  0
  3  6  1  0  0  0  0
  4  7  1  0  0  0  0
  4  8  2  0  0  0  0
  5  9  1  0  0  0  0
  5 10  1  0  0  0  0
  6 11  1  0  0  0  0
  6 12  2  0  0  0  0
  7 13  2  0  0  0  0
  7 14  1  0  0  0  0
  8  9  1  0  0  0  0
  8 22  1  0  0  0  0
 10 15  2  0  0  0  0
 10 23  1  0  0  0  0
 11 24  1  0  0  0  0
 12 15  1  0  0  0  0
 12 25  1  0  0  0  0
 13 16  1  0  0  0  0
 13 26  1  0  0  0  0
 14 17  2  0  0  0  0
 14 27  1  0  0  0  0
 15 18  1  0  0  0  0
 16 19  2  0  0  0  0
 16 28  1  0  0  0  0
 17 19  1  0  0  0  0
 17 29  1  0  0  0  0
 18 30  1  0  0  0  0
 19 20  1  0  0  0  0
 20 21  1  0  0  0  0
 21 31  1  0  0  0  0
 21 32  1  0  0  0  0
 21 33  1  0  0  0  0
M  END
>  <Molecule Name>
5,7-Dihydrox-4'-methoxyisoflavone

$$$$
Exifone
 OpenBabel02222300512D

 30 31  0  0  0  0  0  0  0  0999 V2000
    0.0000    0.0000    0.0000 O   0  0  0  0  0  0  0  0  0  0  0  0
   -0.0118   -1.4960    0.0000 C   0  0  0  0  0  0  0  0  0  0  0  0
   -1.3297   -2.2321    0.0000 C   0  0  0  0  0  0  0  0  0  0  0  0
    1.2822   -2.2321    0.0000 C   0  0  0  0  0  0  0  0  0  0  0  0
   -1.3416   -3.7281    0.0000 C   0  0  0  0  0  0  0  0  0  0  0  0
   -2.6477   -1.4722    0.0000 C   0  0  0  0  0  0  0  0  0  0  0  0
    1.2704   -3.7281    0.0000 C   0  0  0  0  0  0  0  0  0  0  0  0
    2.5764   -1.4722    0.0000 C   0  0  0  0  0  0  0  0  0  0  0  0
   -0.0474   -4.4642    0.0000 O   0  0  0  0  0  0  0  0  0  0  0  0
   -2.6595   -4.4642    0.0000 C   0  0  0  0  0  0  0  0  0  0  0  0
   -3.9656   -2.2084    0.0000 C   0  0  0  0  0  0  0  0  0  0  0  0
    2.5645   -4.4642    0.0000 C   0  0  0  0  0  0  0  0  0  0  0  0
    3.8706   -2.2084    0.0000 C   0  0  0  0  0  0  0  0  0  0  0  0
   -2.6714   -5.9603    0.0000 O   0  0  0  0  0  0  0  0  0  0  0  0
   -3.9774   -3.7044    0.0000 C   0  0  0  0  0  0  0  0  0  0  0  0
    2.5527   -5.9603    0.0000 O   0  0  0  0  0  0  0  0  0  0  0  0
    3.8587   -3.7044    0.0000 C   0  0  0  0  0  0  0  0  0  0  0  0
    5.1648   -1.4485    0.0000 O   0  0  0  0  0  0  0  0  0  0  0  0
   -5.2954   -4.4405    0.0000 O   0  0  0  0  0  0  0  0  0  0  0  0
    5.1529   -4.4405    0.0000 O   0  0  0  0  0  0  0  0  0  0  0  0
   -2.6407   -0.4402    0.0000 H   0  0  0  0  0  0  0  0  0  0  0  0
    0.3763   -4.2434    0.0000 H   0  0  0  0  0  0  0  0  0  0  0  0
    2.5693   -0.4402    0.0000 H   0  0  0  0  0  0  0  0  0  0  0  0
   -0.0413   -5.4012    0.0000 H   0  0  0  0  0  0  0  0  0  0  0  0
   -4.8536   -1.6826    0.0000 H   0  0  0  0  0  0  0  0  0  0  0  0
   -3.4866   -6.4223    0.0000 H   0  0  0  0  0  0  0  0  0  0  0  0
    1.7376   -6.4224    0.0000 H   0  0  0  0  0  0  0  0  0  0  0  0
    5.9797   -1.9110    0.0000 H   0  0  0  0  0  0  0  0  0  0  0  0
   -6.1001   -3.9605    0.0000 H   0  0  0  0  0  0  0  0  0  0  0  0
    5.1590   -5.3775    0.0000 H   0  0  0  0  0  0  0  0  0  0  0  0
  1  2  2  0  0  0  0
  2  3  1  0  0  0  0
  2  4  1  0  0  0  0
  3  5  2  0  0  0  0
  3  6  1  0  0  0  0
  4  7  2  0  0  0  0
  4  8  1  0  0  0  0
  5  9  1  0  0  0  0
  5 10  1  0  0  0  0
  6 11  2  0  0  0  0
  6 21  1  0  0  0  0
  7 12  1  0  0  0  0
  7 22  1  0  0  0  0
  8 13  2  0  0  0  0
  8 23  1  0  0  0  0
  9 24  1  0  0  0  0
 10 14  1  0  0  0  0
 10 15  2  0  0  0  0
 11 15  1  0  0  0  0
 11 25  1  0  0  0  0
 12 16  1  0  0  0  0
 12 17  2  0  0  0  0
 13 18  1  0  0  0  0
 13 17  1  0  0  0  0
 14 26  1  0  0  0  0
 15 19  1  0  0  0  0
 16 27  1  0  0  0  0
 17 20  1  0  0  0  0
 18 28  1  0  0  0  0
 19 29  1  0  0  0  0
 20 30  1  0  0  0  0
M  END
>  <Molecule Name>
Exifone

$$$$
