Hydrocoumarin
Actelion Java MolfileCreator 2.0

  0  0  0  0  0  0              0 V3000
M  V30 BEGIN CTAB
M  V30 COUNTS 11 12 0 0 0
M  V30 BEGIN ATOM
M  V30 1 O 0.0 0.0 0.0 0
M  V30 2 C -1.3091 -0.7312 0.0 0
M  V30 3 O -2.6182 0.0235 0.0 0
M  V30 4 C -1.3208 -2.2172 0.0 0
M  V30 5 C -3.9273 -0.7076 0.0 0
M  V30 6 C -2.63 -2.9484 0.0 0
M  V30 7 C -3.9391 -2.1936 0.0 0
M  V30 8 C -5.2364 0.0471 0.0 0
M  V30 9 C -5.2482 -2.9248 0.0 0
M  V30 10 C -6.5455 -0.684 0.0 0
M  V30 11 C -6.5573 -2.17 0.0 0
M  V30 END ATOM
M  V30 BEGIN BOND
M  V30 1 2 1 2
M  V30 2 1 2 3
M  V30 3 1 2 4
M  V30 4 1 3 5
M  V30 5 1 4 6
M  V30 6 2 5 7
M  V30 7 1 5 8
M  V30 8 1 7 9
M  V30 9 2 8 10
M  V30 10 2 9 11
M  V30 11 1 6 7
M  V30 12 1 10 11
M  V30 END BOND
M  V30 END CTAB
M  END
>  <Molecule Name>
Hydrocoumarin

$$$$
Coumarin  
Actelion Java MolfileCreator 2.0

  0  0  0  0  0  0              0 V3000
M  V30 BEGIN CTAB
M  V30 COUNTS 11 12 0 0 0
M  V30 BEGIN ATOM
M  V30 1 O 0.0 0.0 0.0 0
M  V30 2 C -1.3091 -0.7312 0.0 0
M  V30 3 O -2.6182 0.0235 0.0 0
M  V30 4 C -1.3208 -2.2172 0.0 0
M  V30 5 C -3.9273 -0.7076 0.0 0
M  V30 6 C -2.63 -2.9484 0.0 0
M  V30 7 C -3.9391 -2.1936 0.0 0
M  V30 8 C -5.2364 0.0471 0.0 0
M  V30 9 C -5.2482 -2.9248 0.0 0
M  V30 10 C -6.5455 -0.684 0.0 0
M  V30 11 C -6.5573 -2.17 0.0 0
M  V30 END ATOM
M  V30 BEGIN BOND
M  V30 1 2 1 2
M  V30 2 1 2 3
M  V30 3 1 2 4
M  V30 4 1 3 5
M  V30 5 2 4 6
M  V30 6 2 5 7
M  V30 7 1 5 8
M  V30 8 1 7 9
M  V30 9 2 8 10
M  V30 10 2 9 11
M  V30 11 1 6 7
M  V30 12 1 10 11
M  V30 END BOND
M  V30 END CTAB
M  END
>  <Molecule Name>
Coumarin  

$$$$
Lupeol   
Actelion Java MolfileCreator 2.0

  0  0  0  0  0  0              0 V3000
M  V30 BEGIN CTAB
M  V30 COUNTS 31 35 0 0 0
M  V30 BEGIN ATOM
M  V30 1 O 0.0 0.0 0.0 0
M  V30 2 C 1.2882 0.7682 0.0 0 CFG=2
M  V30 3 C 2.5765 0.0236 0.0 0
M  V30 4 C 1.2764 2.281 0.0 0
M  V30 5 C 3.8647 0.7918 0.0 0 CFG=1
M  V30 6 C 3.3211 -1.2646 0.0 0
M  V30 7 C 1.8201 -1.2646 0.0 0
M  V30 8 C 2.5646 3.0492 0.0 0
M  V30 9 C 3.8529 2.3046 0.0 0 CFG=2
M  V30 10 C 5.153 0.0472 0.0 0
M  V30 11 C 5.1412 3.0729 0.0 0 CFG=2
M  V30 12 C 3.8411 3.8174 0.0 0
M  V30 13 C 6.4412 0.8155 0.0 0
M  V30 14 C 6.4294 2.3283 0.0 0 CFG=1
M  V30 15 C 5.1293 4.5857 0.0 0
M  V30 16 C 7.7177 3.0965 0.0 0 CFG=1
M  V30 17 C 6.4176 3.8411 0.0 0
M  V30 18 C 6.4176 5.3539 0.0 0
M  V30 19 C 7.7059 4.6093 0.0 0 CFG=2
M  V30 20 C 9.0059 2.3519 0.0 0
M  V30 21 C 7.7059 1.6073 0.0 0
M  V30 22 C 8.9941 5.3775 0.0 0 CFG=2
M  V30 23 C 10.2942 3.1201 0.0 0
M  V30 24 C 10.2824 4.633 0.0 0 CFG=1
M  V30 25 C 9.2896 6.8549 0.0 0 CFG=2
M  V30 26 C 11.3815 5.6494 0.0 0
M  V30 27 C 11.6415 4.0302 0.0 0
M  V30 28 C 8.2732 7.9777 0.0 0
M  V30 29 C 10.767 7.0204 0.0 0
M  V30 30 C 8.7223 9.4196 0.0 0
M  V30 31 C 6.7958 7.6822 0.0 0
M  V30 END ATOM
M  V30 BEGIN BOND
M  V30 1 1 2 1 CFG=1
M  V30 2 1 2 3
M  V30 3 1 2 4
M  V30 4 1 3 5
M  V30 5 1 3 6
M  V30 6 1 3 7
M  V30 7 1 4 8
M  V30 8 1 5 9
M  V30 9 1 5 10 CFG=1
M  V30 10 1 9 11
M  V30 11 1 9 12 CFG=1
M  V30 12 1 10 13
M  V30 13 1 11 14
M  V30 14 1 11 15 CFG=1
M  V30 15 1 14 16
M  V30 16 1 14 17 CFG=1
M  V30 17 1 15 18
M  V30 18 1 16 19
M  V30 19 1 16 20
M  V30 20 1 16 21 CFG=3
M  V30 21 1 22 19 CFG=1
M  V30 22 1 20 23
M  V30 23 1 22 24
M  V30 24 1 22 25
M  V30 25 1 24 26
M  V30 26 1 24 27 CFG=1
M  V30 27 1 25 28 CFG=3
M  V30 28 1 25 29
M  V30 29 2 28 30
M  V30 30 1 28 31
M  V30 31 1 8 9
M  V30 32 1 13 14
M  V30 33 1 19 18 CFG=3
M  V30 34 1 23 24
M  V30 35 1 26 29
M  V30 END BOND
M  V30 BEGIN COLLECTION
M  V30 MDLV30/STEABS ATOMS=(10 2 5 9 11 14 16 19 22 24 25)
M  V30 END COLLECTION
M  V30 END CTAB
M  END
>  <Molecule Name>
Lupeol   

$$$$
Phytol   
Actelion Java MolfileCreator 2.0

  0  0  0  0  0  0              0 V3000
M  V30 BEGIN CTAB
M  V30 COUNTS 21 20 0 0 0
M  V30 BEGIN ATOM
M  V30 1 O 0.0 0.0 0.0 0
M  V30 2 C 1.2902 0.7693 0.0 0
M  V30 3 C 2.5804 0.0236 0.0 0
M  V30 4 C 3.8706 0.793 0.0 0
M  V30 5 C 5.1608 0.0473 0.0 0
M  V30 6 C 3.8588 2.3081 0.0 0
M  V30 7 C 6.451 0.8167 0.0 0
M  V30 8 C 7.7412 0.071 0.0 0
M  V30 9 C 9.0314 0.8404 0.0 0 CFG=1
M  V30 10 C 10.3217 0.0946 0.0 0
M  V30 11 C 9.0196 2.3555 0.0 0
M  V30 12 C 11.6119 0.864 0.0 0
M  V30 13 C 12.9021 0.1183 0.0 0
M  V30 14 C 14.1923 0.8877 0.0 0 CFG=1
M  V30 15 C 15.4825 0.142 0.0 0
M  V30 16 C 14.1805 2.4028 0.0 0
M  V30 17 C 16.7727 0.9114 0.0 0
M  V30 18 C 18.0629 0.1657 0.0 0
M  V30 19 C 19.3531 0.9351 0.0 0
M  V30 20 C 19.3413 2.4502 0.0 0
M  V30 21 C 20.6434 0.1893 0.0 0
M  V30 END ATOM
M  V30 BEGIN BOND
M  V30 1 1 1 2
M  V30 2 1 2 3
M  V30 3 2 3 4
M  V30 4 1 4 5
M  V30 5 1 4 6
M  V30 6 1 5 7
M  V30 7 1 7 8
M  V30 8 1 8 9
M  V30 9 1 9 10
M  V30 10 1 9 11 CFG=3
M  V30 11 1 10 12
M  V30 12 1 12 13
M  V30 13 1 13 14
M  V30 14 1 14 15
M  V30 15 1 14 16 CFG=3
M  V30 16 1 15 17
M  V30 17 1 17 18
M  V30 18 1 18 19
M  V30 19 1 19 20
M  V30 20 1 19 21
M  V30 END BOND
M  V30 BEGIN COLLECTION
M  V30 MDLV30/STEABS ATOMS=(2 9 14)
M  V30 END COLLECTION
M  V30 END CTAB
M  END
>  <Molecule Name>
Phytol   

$$$$
Taxifolin        
Actelion Java MolfileCreator 2.0

  0  0  0  0  0  0              0 V3000
M  V30 BEGIN CTAB
M  V30 COUNTS 22 24 0 0 0
M  V30 BEGIN ATOM
M  V30 1 O 0.0 0.0 0.0 0
M  V30 2 C -0.0118 1.5113 0.0 0
M  V30 3 C -1.3224 2.267 0.0 0
M  V30 4 C 1.2751 2.267 0.0 0 CFG=2
M  V30 5 C -1.3342 3.7783 0.0 0
M  V30 6 C -2.633 1.5349 0.0 0
M  V30 7 O 2.5621 1.5349 0.0 0
M  V30 8 C 1.2633 3.7783 0.0 0 CFG=2
M  V30 9 O -0.0472 4.534 0.0 0
M  V30 10 C -2.6448 4.534 0.0 0
M  V30 11 O -2.6448 0.0472 0.0 0
M  V30 12 C -3.9436 2.2906 0.0 0
M  V30 13 C 2.5503 4.534 0.0 0
M  V30 14 C -3.9554 3.8019 0.0 0
M  V30 15 C 3.8373 3.8019 0.0 0
M  V30 16 C 2.5385 6.0453 0.0 0
M  V30 17 O -5.266 4.5576 0.0 0
M  V30 18 C 5.1243 4.5576 0.0 0
M  V30 19 C 3.8255 6.801 0.0 0
M  V30 20 O 6.4113 3.8255 0.0 0
M  V30 21 C 5.1125 6.0689 0.0 0
M  V30 22 O 6.3995 6.8246 0.0 0
M  V30 END ATOM
M  V30 BEGIN BOND
M  V30 1 2 1 2
M  V30 2 1 2 3
M  V30 3 1 2 4
M  V30 4 2 3 5
M  V30 5 1 3 6
M  V30 6 1 4 7 CFG=1
M  V30 7 1 4 8
M  V30 8 1 5 9
M  V30 9 1 5 10
M  V30 10 1 6 11
M  V30 11 2 6 12
M  V30 12 1 8 13 CFG=3
M  V30 13 2 10 14
M  V30 14 2 13 15
M  V30 15 1 13 16
M  V30 16 1 14 17
M  V30 17 1 15 18
M  V30 18 2 16 19
M  V30 19 1 18 20
M  V30 20 2 18 21
M  V30 21 1 21 22
M  V30 22 1 8 9
M  V30 23 1 12 14
M  V30 24 1 19 21
M  V30 END BOND
M  V30 BEGIN COLLECTION
M  V30 MDLV30/STEABS ATOMS=(2 4 8)
M  V30 END COLLECTION
M  V30 END CTAB
M  END
>  <Molecule Name>
Taxifolin        

$$$$
Medicarpin    
Actelion Java MolfileCreator 2.0

  0  0  0  0  0  0              0 V3000
M  V30 BEGIN CTAB
M  V30 COUNTS 20 23 0 0 0
M  V30 BEGIN ATOM
M  V30 1 O 0.0 0.0 0.0 0
M  V30 2 C 0.4471 1.4354 0.0 0
M  V30 3 C -1.4707 -0.2941 0.0 0
M  V30 4 C -0.5647 2.5532 0.0 0
M  V30 5 C 1.8943 1.7531 0.0 0
M  V30 6 C -2.4826 0.8236 0.0 0 CFG=2
M  V30 7 C -0.1176 3.9887 0.0 0
M  V30 8 C -2.0355 2.259 0.0 0 CFG=1
M  V30 9 C 2.3414 3.1886 0.0 0
M  V30 10 C -3.9887 0.8353 0.0 0
M  V30 11 C 1.3295 4.3063 0.0 0
M  V30 12 O -3.2592 3.1533 0.0 0
M  V30 13 O 3.7886 3.5063 0.0 0
M  V30 14 C -4.4593 2.2708 0.0 0
M  V30 15 C -5.0005 -0.2588 0.0 0
M  V30 16 C -5.9301 2.5885 0.0 0
M  V30 17 C -6.4713 0.0588 0.0 0
M  V30 18 C -6.942 1.4942 0.0 0
M  V30 19 O -8.4127 1.8119 0.0 0
M  V30 20 C -9.4246 0.7177 0.0 0
M  V30 END ATOM
M  V30 BEGIN BOND
M  V30 1 1 1 2
M  V30 2 1 1 3
M  V30 3 2 2 4
M  V30 4 1 2 5
M  V30 5 1 6 3 CFG=1
M  V30 6 1 4 7
M  V30 7 1 4 8
M  V30 8 2 5 9
M  V30 9 1 6 10
M  V30 10 2 7 11
M  V30 11 1 8 12 CFG=1
M  V30 12 1 9 13
M  V30 13 2 10 14
M  V30 14 1 10 15
M  V30 15 1 14 16
M  V30 16 2 15 17
M  V30 17 2 16 18
M  V30 18 1 18 19
M  V30 19 1 19 20
M  V30 20 1 6 8
M  V30 21 1 9 11
M  V30 22 1 12 14
M  V30 23 1 17 18
M  V30 END BOND
M  V30 BEGIN COLLECTION
M  V30 MDLV30/STEABS ATOMS=(2 6 8)
M  V30 END COLLECTION
M  V30 END CTAB
M  END
>  <Molecule Name>
Medicarpin    

$$$$
Quercetin 3-O-rutinoside    
Actelion Java MolfileCreator 2.0

  0  0  0  0  0  0              0 V3000
M  V30 BEGIN CTAB
M  V30 COUNTS 43 47 0 0 0
M  V30 BEGIN ATOM
M  V30 1 O 0.0 0.0 0.0 0
M  V30 2 C -0.0118 1.5119 0.0 0
M  V30 3 C 1.2756 2.2797 0.0 0
M  V30 4 C -1.3229 2.2797 0.0 0
M  V30 5 O 2.5632 1.5355 0.0 0
M  V30 6 C 1.2638 3.7916 0.0 0
M  V30 7 C -1.3347 3.7916 0.0 0
M  V30 8 C -2.634 1.5355 0.0 0
M  V30 9 C 2.5513 0.0472 0.0 0 CFG=2
M  V30 10 O -0.0472 4.5594 0.0 0
M  V30 11 C 2.5513 4.5594 0.0 0
M  V30 12 C -2.6458 4.5594 0.0 0
M  V30 13 O -2.6458 0.0472 0.0 0
M  V30 14 C -3.9452 2.3033 0.0 0
M  V30 15 O 1.2402 -0.685 0.0 0
M  V30 16 C 3.8388 -0.685 0.0 0 CFG=2
M  V30 17 C 3.8388 3.8152 0.0 0
M  V30 18 C 2.5395 6.0713 0.0 0
M  V30 19 C -3.957 3.8152 0.0 0
M  V30 20 C 1.2284 -2.1734 0.0 0 CFG=1
M  V30 21 O 5.1264 0.0708 0.0 0
M  V30 22 C 3.827 -2.1734 0.0 0 CFG=2
M  V30 23 C 5.1264 4.583 0.0 0
M  V30 24 C 3.827 6.8273 0.0 0
M  V30 25 O -5.2681 4.583 0.0 0
M  V30 26 C 2.5159 -2.9057 0.0 0 CFG=2
M  V30 27 C -0.0826 -2.9057 0.0 0
M  V30 28 O 5.1145 -2.9057 0.0 0
M  V30 29 O 6.4139 3.8388 0.0 0
M  V30 30 C 5.1145 6.0949 0.0 0
M  V30 31 O 2.5041 -4.394 0.0 0
M  V30 32 O -1.3938 -2.1497 0.0 0
M  V30 33 O 6.4021 6.8509 0.0 0
M  V30 34 C -2.7049 -2.8821 0.0 0 CFG=2
M  V30 35 O -4.016 -2.1261 0.0 0
M  V30 36 C -2.7167 -4.3704 0.0 0 CFG=2
M  V30 37 C -5.3272 -2.8585 0.0 0 CFG=2
M  V30 38 O -1.4292 -5.1027 0.0 0
M  V30 39 C -4.0278 -5.1027 0.0 0 CFG=1
M  V30 40 C -5.339 -4.3468 0.0 0 CFG=1
M  V30 41 C -6.6383 -2.1025 0.0 0
M  V30 42 O -4.0397 -6.591 0.0 0
M  V30 43 O -6.6501 -5.0791 0.0 0
M  V30 END ATOM
M  V30 BEGIN BOND
M  V30 1 2 1 2
M  V30 2 1 2 3
M  V30 3 1 2 4
M  V30 4 1 3 5
M  V30 5 2 3 6
M  V30 6 2 4 7
M  V30 7 1 4 8
M  V30 8 1 9 5 CFG=1
M  V30 9 1 6 10
M  V30 10 1 6 11
M  V30 11 1 7 12
M  V30 12 1 8 13
M  V30 13 2 8 14
M  V30 14 1 9 15
M  V30 15 1 9 16
M  V30 16 2 11 17
M  V30 17 1 11 18
M  V30 18 2 12 19
M  V30 19 1 15 20
M  V30 20 1 16 21 CFG=3
M  V30 21 1 16 22
M  V30 22 1 17 23
M  V30 23 2 18 24
M  V30 24 1 19 25
M  V30 25 1 20 26
M  V30 26 1 20 27 CFG=1
M  V30 27 1 22 28 CFG=1
M  V30 28 1 23 29
M  V30 29 2 23 30
M  V30 30 1 26 31 CFG=3
M  V30 31 1 27 32
M  V30 32 1 30 33
M  V30 33 1 34 32 CFG=1
M  V30 34 1 34 35
M  V30 35 1 34 36
M  V30 36 1 35 37
M  V30 37 1 36 38 CFG=3
M  V30 38 1 36 39
M  V30 39 1 37 40
M  V30 40 1 37 41 CFG=3
M  V30 41 1 39 42 CFG=3
M  V30 42 1 40 43 CFG=1
M  V30 43 1 7 10
M  V30 44 1 14 19
M  V30 45 1 22 26
M  V30 46 1 24 30
M  V30 47 1 39 40
M  V30 END BOND
M  V30 BEGIN COLLECTION
M  V30 MDLV30/STEABS ATOMS=(10 9 16 20 22 26 34 36 37 39 40)
M  V30 END COLLECTION
M  V30 END CTAB
M  END
>  <Molecule Name>
Quercetin 3-O-rutinoside    

$$$$
Quercetin            
Actelion Java MolfileCreator 2.0

  0  0  0  0  0  0              0 V3000
M  V30 BEGIN CTAB
M  V30 COUNTS 22 24 0 0 0
M  V30 BEGIN ATOM
M  V30 1 O 0.0 0.0 0.0 0
M  V30 2 C -0.0117 1.51 0.0 0
M  V30 3 C 1.2741 2.2769 0.0 0
M  V30 4 C -1.3213 2.2769 0.0 0
M  V30 5 O 2.56 1.5336 0.0 0
M  V30 6 C 1.2623 3.787 0.0 0
M  V30 7 C -1.3331 3.787 0.0 0
M  V30 8 C -2.6308 1.5336 0.0 0
M  V30 9 O -0.0471 4.542 0.0 0
M  V30 10 C 2.5482 4.542 0.0 0
M  V30 11 C -2.6426 4.542 0.0 0
M  V30 12 O -2.6426 0.0471 0.0 0
M  V30 13 C -3.9404 2.3005 0.0 0
M  V30 14 C 3.8342 3.8106 0.0 0
M  V30 15 C 2.5364 6.0521 0.0 0
M  V30 16 C -3.9522 3.8106 0.0 0
M  V30 17 C 5.1201 4.5656 0.0 0
M  V30 18 C 3.8224 6.8072 0.0 0
M  V30 19 O -5.2617 4.5656 0.0 0
M  V30 20 O 6.4061 3.8342 0.0 0
M  V30 21 C 5.1083 6.0757 0.0 0
M  V30 22 O 6.3943 6.8308 0.0 0
M  V30 END ATOM
M  V30 BEGIN BOND
M  V30 1 2 1 2
M  V30 2 1 2 3
M  V30 3 1 2 4
M  V30 4 1 3 5
M  V30 5 2 3 6
M  V30 6 2 4 7
M  V30 7 1 4 8
M  V30 8 1 6 9
M  V30 9 1 6 10
M  V30 10 1 7 11
M  V30 11 1 8 12
M  V30 12 2 8 13
M  V30 13 2 10 14
M  V30 14 1 10 15
M  V30 15 2 11 16
M  V30 16 1 14 17
M  V30 17 2 15 18
M  V30 18 1 16 19
M  V30 19 1 17 20
M  V30 20 2 17 21
M  V30 21 1 21 22
M  V30 22 1 7 9
M  V30 23 1 13 16
M  V30 24 1 18 21
M  V30 END BOND
M  V30 END CTAB
M  END
>  <Molecule Name>
Quercetin            

$$$$
Kaempferol 3-O-rhamnoside    
Actelion Java MolfileCreator 2.0

  0  0  0  0  0  0              0 V3000
M  V30 BEGIN CTAB
M  V30 COUNTS 31 34 0 0 0
M  V30 BEGIN ATOM
M  V30 1 O 0.0 0.0 0.0 0
M  V30 2 C -0.0118 1.5119 0.0 0
M  V30 3 C 1.2757 2.2797 0.0 0
M  V30 4 C -1.3229 2.2797 0.0 0
M  V30 5 O 2.5632 1.5355 0.0 0
M  V30 6 C 1.2639 3.7917 0.0 0
M  V30 7 C -1.3347 3.7917 0.0 0
M  V30 8 C -2.6341 1.5355 0.0 0
M  V30 9 C 2.5514 0.0472 0.0 0
M  V30 10 O -0.0472 4.5476 0.0 0
M  V30 11 C 2.5514 4.5476 0.0 0
M  V30 12 C -2.6459 4.5476 0.0 0
M  V30 13 O -2.6459 0.0472 0.0 0
M  V30 14 C -3.9452 2.3033 0.0 0
M  V30 15 O 1.2402 -0.6851 0.0 0
M  V30 16 C 3.8389 -0.6851 0.0 0 CFG=1
M  V30 17 C 2.5396 6.0596 0.0 0
M  V30 18 C 3.8389 3.8153 0.0 0
M  V30 19 C -3.957 3.8153 0.0 0
M  V30 20 C 1.2284 -2.1734 0.0 0 CFG=1
M  V30 21 O 5.1264 0.0708 0.0 0
M  V30 22 C 3.8271 -2.1734 0.0 0 CFG=2
M  V30 23 C 3.8271 6.8274 0.0 0
M  V30 24 C 5.1264 4.5713 0.0 0
M  V30 25 O -5.2682 4.5713 0.0 0
M  V30 26 C 2.5159 -2.9176 0.0 0 CFG=2
M  V30 27 C -0.0826 -2.9176 0.0 0
M  V30 28 O 5.1146 -2.9176 0.0 0
M  V30 29 C 5.1146 6.0832 0.0 0
M  V30 30 O 2.5041 -4.4059 0.0 0
M  V30 31 O 6.4021 6.851 0.0 0
M  V30 END ATOM
M  V30 BEGIN BOND
M  V30 1 2 1 2
M  V30 2 1 2 3
M  V30 3 1 2 4
M  V30 4 1 3 5
M  V30 5 2 3 6
M  V30 6 2 4 7
M  V30 7 1 4 8
M  V30 8 1 5 9
M  V30 9 1 6 10
M  V30 10 1 6 11
M  V30 11 1 7 12
M  V30 12 1 8 13
M  V30 13 2 8 14
M  V30 14 1 9 15
M  V30 15 1 9 16
M  V30 16 2 11 17
M  V30 17 1 11 18
M  V30 18 2 12 19
M  V30 19 1 15 20
M  V30 20 1 16 21 CFG=1
M  V30 21 1 16 22
M  V30 22 1 17 23
M  V30 23 2 18 24
M  V30 24 1 19 25
M  V30 25 1 20 26
M  V30 26 1 20 27 CFG=1
M  V30 27 1 22 28 CFG=1
M  V30 28 2 23 29
M  V30 29 1 26 30 CFG=3
M  V30 30 1 29 31
M  V30 31 1 7 10
M  V30 32 1 14 19
M  V30 33 1 22 26
M  V30 34 1 24 29
M  V30 END BOND
M  V30 BEGIN COLLECTION
M  V30 MDLV30/STEABS ATOMS=(4 16 20 22 26)
M  V30 END COLLECTION
M  V30 END CTAB
M  END
>  <Molecule Name>
Kaempferol 3-O-rhamnoside    

$$$$
Kaempferol 3-O-glucoside        
Actelion Java MolfileCreator 2.0

  0  0  0  0  0  0              0 V3000
M  V30 BEGIN CTAB
M  V30 COUNTS 32 35 0 0 0
M  V30 BEGIN ATOM
M  V30 1 O 0.0 0.0 0.0 0
M  V30 2 C -0.0118 1.5132 0.0 0
M  V30 3 C 1.2768 2.2699 0.0 0
M  V30 4 C -1.3241 2.2699 0.0 0
M  V30 5 O 2.5654 1.5369 0.0 0
M  V30 6 C 1.265 3.7831 0.0 0
M  V30 7 C -1.3359 3.7831 0.0 0
M  V30 8 C -2.6364 1.5369 0.0 0
M  V30 9 C 2.5536 0.0472 0.0 0
M  V30 10 O -0.0472 4.5398 0.0 0
M  V30 11 C 2.5536 4.5398 0.0 0
M  V30 12 C -2.6482 4.5398 0.0 0
M  V30 13 O -2.6482 0.0472 0.0 0
M  V30 14 C -3.9486 2.2935 0.0 0
M  V30 15 O 1.2413 -0.6857 0.0 0
M  V30 16 C 3.8422 -0.6857 0.0 0 CFG=2
M  V30 17 C 2.5418 6.053 0.0 0
M  V30 18 C 3.8422 3.795 0.0 0
M  V30 19 C -3.9605 3.795 0.0 0
M  V30 20 C 1.2295 -2.1753 0.0 0 CFG=1
M  V30 21 O 5.1309 0.0709 0.0 0
M  V30 22 C 3.8304 -2.1753 0.0 0 CFG=2
M  V30 23 C 3.8304 6.8097 0.0 0
M  V30 24 C 5.1309 4.5516 0.0 0
M  V30 25 O -5.2728 4.5516 0.0 0
M  V30 26 C 2.5181 -2.9083 0.0 0 CFG=2
M  V30 27 C -0.0827 -2.9083 0.0 0
M  V30 28 O 5.1191 -2.9083 0.0 0
M  V30 29 C 5.1191 6.0767 0.0 0
M  V30 30 O 2.5063 -4.3979 0.0 0
M  V30 31 O -1.395 -2.1516 0.0 0
M  V30 32 O 6.4077 6.8333 0.0 0
M  V30 END ATOM
M  V30 BEGIN BOND
M  V30 1 2 1 2
M  V30 2 1 2 3
M  V30 3 1 2 4
M  V30 4 1 3 5
M  V30 5 2 3 6
M  V30 6 2 4 7
M  V30 7 1 4 8
M  V30 8 1 5 9
M  V30 9 1 6 10
M  V30 10 1 6 11
M  V30 11 1 7 12
M  V30 12 1 8 13
M  V30 13 2 8 14
M  V30 14 1 9 15
M  V30 15 1 9 16
M  V30 16 2 11 17
M  V30 17 1 11 18
M  V30 18 2 12 19
M  V30 19 1 15 20
M  V30 20 1 16 21 CFG=3
M  V30 21 1 16 22
M  V30 22 1 17 23
M  V30 23 2 18 24
M  V30 24 1 19 25
M  V30 25 1 20 26
M  V30 26 1 20 27 CFG=1
M  V30 27 1 22 28 CFG=1
M  V30 28 2 23 29
M  V30 29 1 26 30 CFG=3
M  V30 30 1 27 31
M  V30 31 1 29 32
M  V30 32 1 7 10
M  V30 33 1 14 19
M  V30 34 1 22 26
M  V30 35 1 24 29
M  V30 END BOND
M  V30 BEGIN COLLECTION
M  V30 MDLV30/STEABS ATOMS=(4 16 20 22 26)
M  V30 END COLLECTION
M  V30 END CTAB
M  END
>  <Molecule Name>
Kaempferol 3-O-glucoside        

$$$$
Ferulic acid            
Actelion Java MolfileCreator 2.0

  0  0  0  0  0  0              0 V3000
M  V30 BEGIN CTAB
M  V30 COUNTS 14 14 0 0 0
M  V30 BEGIN ATOM
M  V30 1 O 0.0 0.0 0.0 0
M  V30 2 C -0.0117 -1.4829 0.0 0
M  V30 3 O 1.2711 -2.2244 0.0 0
M  V30 4 C -1.3182 -2.2244 0.0 0
M  V30 5 C -2.6246 -1.4594 0.0 0
M  V30 6 C -3.9311 -2.2009 0.0 0
M  V30 7 C -5.2375 -1.4359 0.0 0
M  V30 8 C -3.9428 -3.6839 0.0 0
M  V30 9 C -6.544 -2.1774 0.0 0
M  V30 10 C -5.2493 -4.4254 0.0 0
M  V30 11 O -7.8504 -1.4123 0.0 0
M  V30 12 C -6.5557 -3.6604 0.0 0
M  V30 13 C -9.1569 -2.1538 0.0 0
M  V30 14 O -7.8622 -4.4019 0.0 0
M  V30 END ATOM
M  V30 BEGIN BOND
M  V30 1 2 1 2
M  V30 2 1 2 3
M  V30 3 1 2 4
M  V30 4 2 4 5
M  V30 5 1 5 6
M  V30 6 2 6 7
M  V30 7 1 6 8
M  V30 8 1 7 9
M  V30 9 2 8 10
M  V30 10 1 9 11
M  V30 11 2 9 12
M  V30 12 1 11 13
M  V30 13 1 12 14
M  V30 14 1 10 12
M  V30 END BOND
M  V30 END CTAB
M  END
>  <Molecule Name>
Ferulic acid            

$$$$
Vanillic acid         
Actelion Java MolfileCreator 2.0

  0  0  0  0  0  0              0 V3000
M  V30 BEGIN CTAB
M  V30 COUNTS 12 12 0 0 0
M  V30 BEGIN ATOM
M  V30 1 O 0.0 0.0 0.0 0
M  V30 2 C -0.0118 -1.4886 0.0 0
M  V30 3 O 1.276 -2.2211 0.0 0
M  V30 4 C -1.3232 -2.2211 0.0 0
M  V30 5 C -2.6347 -1.465 0.0 0
M  V30 6 C -1.335 -3.7098 0.0 0
M  V30 7 C -3.9461 -2.1975 0.0 0
M  V30 8 C -2.6465 -4.4423 0.0 0
M  V30 9 O -5.2576 -1.4414 0.0 0
M  V30 10 C -3.9579 -3.6862 0.0 0
M  V30 11 C -6.569 -2.1739 0.0 0
M  V30 12 O -5.2694 -4.4187 0.0 0
M  V30 END ATOM
M  V30 BEGIN BOND
M  V30 1 2 1 2
M  V30 2 1 2 3
M  V30 3 1 2 4
M  V30 4 2 4 5
M  V30 5 1 4 6
M  V30 6 1 5 7
M  V30 7 2 6 8
M  V30 8 1 7 9
M  V30 9 2 7 10
M  V30 10 1 9 11
M  V30 11 1 10 12
M  V30 12 1 8 10
M  V30 END BOND
M  V30 END CTAB
M  END
>  <Molecule Name>
Vanillic acid         

$$$$
Chlorogenic acid 
Actelion Java MolfileCreator 2.0

  0  0  0  0  0  0              0 V3000
M  V30 BEGIN CTAB
M  V30 COUNTS 25 26 0 0 0
M  V30 BEGIN ATOM
M  V30 1 O 0.0 0.0 0.0 0
M  V30 2 C -0.0118 -1.4895 0.0 0
M  V30 3 O 1.2767 -2.2224 0.0 0
M  V30 4 C -1.324 -2.2224 0.0 0
M  V30 5 C 2.5652 -1.4658 0.0 0 CFG=1
M  V30 6 C -2.6362 -1.4658 0.0 0
M  V30 7 C 2.5534 0.0472 0.0 0 CFG=2
M  V30 8 C 3.8538 -2.1988 0.0 0
M  V30 9 C -3.9483 -2.1988 0.0 0
M  V30 10 O 1.2412 0.8038 0.0 0
M  V30 11 C 3.8419 0.8038 0.0 0 CFG=2
M  V30 12 C 5.1423 -1.4422 0.0 0 CFG=2
M  V30 13 C -5.2605 -1.4422 0.0 0
M  V30 14 C -3.9602 -3.6883 0.0 0
M  V30 15 O 3.8301 2.317 0.0 0
M  V30 16 C 5.1305 0.0709 0.0 0
M  V30 17 O 5.1305 -2.9317 0.0 0
M  V30 18 C 6.4309 -2.1751 0.0 0
M  V30 19 C -6.5727 -2.1751 0.0 0
M  V30 20 C -5.2724 -4.433 0.0 0
M  V30 21 O 6.419 -3.6646 0.0 0
M  V30 22 O 7.7194 -1.4185 0.0 0
M  V30 23 O -7.8849 -1.4185 0.0 0
M  V30 24 C -6.5845 -3.6646 0.0 0
M  V30 25 O -7.8967 -4.4094 0.0 0
M  V30 END ATOM
M  V30 BEGIN BOND
M  V30 1 2 1 2
M  V30 2 1 2 3
M  V30 3 1 2 4
M  V30 4 1 5 3 CFG=1
M  V30 5 2 4 6
M  V30 6 1 5 7
M  V30 7 1 5 8
M  V30 8 1 6 9
M  V30 9 1 7 10 CFG=3
M  V30 10 1 7 11
M  V30 11 1 8 12
M  V30 12 2 9 13
M  V30 13 1 9 14
M  V30 14 1 11 15 CFG=3
M  V30 15 1 11 16
M  V30 16 1 12 17 CFG=3
M  V30 17 1 12 18
M  V30 18 1 13 19
M  V30 19 2 14 20
M  V30 20 2 18 21
M  V30 21 1 18 22
M  V30 22 1 19 23
M  V30 23 2 19 24
M  V30 24 1 24 25
M  V30 25 1 12 16
M  V30 26 1 20 24
M  V30 END BOND
M  V30 BEGIN COLLECTION
M  V30 MDLV30/STEABS ATOMS=(4 5 7 11 12)
M  V30 END COLLECTION
M  V30 END CTAB
M  END
>  <Molecule Name>
Chlorogenic acid 

$$$$
5,5,8a-Trimethyl-3,5,6,7,8,8a hexahydro-2H-chromene
Actelion Java MolfileCreator 2.0

  0  0  0  0  0  0              0 V3000
M  V30 BEGIN CTAB
M  V30 COUNTS 13 14 0 0 0
M  V30 BEGIN ATOM
M  V30 1 O 0.0 0.0 0.0 0
M  V30 2 C -1.3022 0.7625 0.0 0 CFG=2
M  V30 3 C 1.2788 0.7625 0.0 0
M  V30 4 C -1.314 2.2643 0.0 0
M  V30 5 C -2.6045 0.0234 0.0 0
M  V30 6 C -1.314 -0.7156 0.0 0
M  V30 7 C 1.267 2.2643 0.0 0
M  V30 8 C -0.0351 3.0269 0.0 0
M  V30 9 C -2.6162 3.0269 0.0 0
M  V30 10 C -3.9068 0.786 0.0 0
M  V30 11 C -3.9185 2.2877 0.0 0
M  V30 12 C -3.6839 4.0945 0.0 0
M  V30 13 C -1.8771 4.3291 0.0 0
M  V30 END ATOM
M  V30 BEGIN BOND
M  V30 1 1 1 2
M  V30 2 1 1 3
M  V30 3 1 2 4
M  V30 4 1 2 5
M  V30 5 1 2 6 CFG=3
M  V30 6 1 3 7
M  V30 7 2 4 8
M  V30 8 1 4 9
M  V30 9 1 5 10
M  V30 10 1 9 11
M  V30 11 1 9 12
M  V30 12 1 9 13
M  V30 13 1 7 8
M  V30 14 1 10 11
M  V30 END BOND
M  V30 BEGIN COLLECTION
M  V30 MDLV30/STERAC1 ATOMS=(1 2)
M  V30 END COLLECTION
M  V30 END CTAB
M  END
>  <Molecule Name>
5,5,8a-Trimethyl-3,5,6,7,8,8a hexahydro-2H-chromene

$$$$
6,3′-dimethoxy luteolin -7-O-α-arabinopyranosyl(1→6)-O-β- galactopyranoside
Actelion Java MolfileCreator 2.0

  0  0  0  0  0  0              0 V3000
M  V30 BEGIN CTAB
M  V30 COUNTS 44 48 0 0 0
M  V30 BEGIN ATOM
M  V30 1 O 0.0 0.0 0.0 0
M  V30 2 C -0.0118 1.5132 0.0 0
M  V30 3 C -1.3241 2.2699 0.0 0
M  V30 4 C 1.2768 2.2699 0.0 0
M  V30 5 C -2.6364 1.5369 0.0 0
M  V30 6 C -1.3359 3.7832 0.0 0
M  V30 7 C 1.265 3.7832 0.0 0
M  V30 8 O -2.6482 0.0472 0.0 0
M  V30 9 C -3.9487 2.2935 0.0 0
M  V30 10 O -0.0472 4.5398 0.0 0
M  V30 11 C -2.6482 4.5398 0.0 0
M  V30 12 C 2.5536 4.5398 0.0 0
M  V30 13 O -5.261 1.5605 0.0 0
M  V30 14 C -3.9605 3.8068 0.0 0
M  V30 15 C 3.8423 3.795 0.0 0
M  V30 16 C 2.5418 6.0531 0.0 0
M  V30 17 C -5.2728 0.0709 0.0 0
M  V30 18 O -5.2728 4.5635 0.0 0
M  V30 19 C 5.131 4.5517 0.0 0
M  V30 20 C 3.8305 6.8098 0.0 0
M  V30 21 C -6.5852 3.8305 0.0 0 CFG=2
M  V30 22 O 6.4196 3.8187 0.0 0
M  V30 23 C 5.1192 6.065 0.0 0
M  V30 24 C -7.8975 4.5871 0.0 0 CFG=2
M  V30 25 C -6.597 2.3408 0.0 0
M  V30 26 C 7.7083 4.5753 0.0 0
M  V30 27 O 6.4078 6.8216 0.0 0
M  V30 28 O -7.9093 6.1004 0.0 0
M  V30 29 C -9.2098 3.8541 0.0 0 CFG=1
M  V30 30 O -7.9093 1.6078 0.0 0
M  V30 31 O -10.5221 4.6108 0.0 0
M  V30 32 C -9.2216 2.3645 0.0 0 CFG=1
M  V30 33 O -10.5339 1.6315 0.0 0
M  V30 34 C -10.5457 0.1418 0.0 0
M  V30 35 C -9.2571 -0.5911 0.0 0 CFG=1
M  V30 36 O -7.9684 0.1655 0.0 0
M  V30 37 C -9.2689 -2.0807 0.0 0 CFG=2
M  V30 38 C -6.6797 -0.5793 0.0 0 CFG=1
M  V30 39 O -10.5812 -2.8137 0.0 0
M  V30 40 C -7.9802 -2.8256 0.0 0 CFG=1
M  V30 41 O -5.3911 0.1773 0.0 0
M  V30 42 C -6.6916 -2.0689 0.0 0 CFG=1
M  V30 43 O -7.9921 -4.3152 0.0 0
M  V30 44 O -5.4029 -2.8019 0.0 0
M  V30 END ATOM
M  V30 BEGIN BOND
M  V30 1 2 1 2
M  V30 2 1 2 3
M  V30 3 1 2 4
M  V30 4 2 3 5
M  V30 5 1 3 6
M  V30 6 2 4 7
M  V30 7 1 5 8
M  V30 8 1 5 9
M  V30 9 1 6 10
M  V30 10 2 6 11
M  V30 11 1 7 12
M  V30 12 1 9 13
M  V30 13 2 9 14
M  V30 14 2 12 15
M  V30 15 1 12 16
M  V30 16 1 13 17
M  V30 17 1 14 18
M  V30 18 1 15 19
M  V30 19 2 16 20
M  V30 20 1 21 18 CFG=1
M  V30 21 1 19 22
M  V30 22 2 19 23
M  V30 23 1 21 24
M  V30 24 1 21 25
M  V30 25 1 22 26
M  V30 26 1 23 27
M  V30 27 1 24 28 CFG=1
M  V30 28 1 24 29
M  V30 29 1 25 30
M  V30 30 1 29 31 CFG=3
M  V30 31 1 29 32
M  V30 32 1 32 33 CFG=1
M  V30 33 1 33 34
M  V30 34 1 35 34 CFG=1
M  V30 35 1 35 36
M  V30 36 1 35 37
M  V30 37 1 36 38
M  V30 38 1 37 39 CFG=1
M  V30 39 1 37 40
M  V30 40 1 38 41 CFG=1
M  V30 41 1 38 42
M  V30 42 1 40 43 CFG=1
M  V30 43 1 42 44 CFG=3
M  V30 44 1 7 10
M  V30 45 1 11 14
M  V30 46 1 20 23
M  V30 47 1 30 32
M  V30 48 1 40 42
M  V30 END BOND
M  V30 BEGIN COLLECTION
M  V30 MDLV30/STEABS ATOMS=(9 21 24 29 32 35 37 38 40 42)
M  V30 END COLLECTION
M  V30 END CTAB
M  END
>  <Molecule Name>
6,3′-dimethoxy luteolin -7-O-α-arabinopyranosyl(1→6)-O-β- galactopyranoside

$$$$
Kaempferol 3-O-rutinoside
Actelion Java MolfileCreator 2.0

  0  0  0  0  0  0              0 V3000
M  V30 BEGIN CTAB
M  V30 COUNTS 42 46 0 0 0
M  V30 BEGIN ATOM
M  V30 1 O 0.0 0.0 0.0 0
M  V30 2 C -0.0117 1.5103 0.0 0
M  V30 3 C 1.2743 2.2773 0.0 0
M  V30 4 C -1.3215 2.2773 0.0 0
M  V30 5 O 2.5605 1.5339 0.0 0
M  V30 6 C 1.2625 3.7877 0.0 0
M  V30 7 C -1.3333 3.7877 0.0 0
M  V30 8 C -2.6313 1.5339 0.0 0
M  V30 9 C 2.5487 0.0471 0.0 0 CFG=2
M  V30 10 O -0.0471 4.5546 0.0 0
M  V30 11 C 2.5487 4.5546 0.0 0
M  V30 12 C -2.6431 4.5546 0.0 0
M  V30 13 O -2.6431 0.0471 0.0 0
M  V30 14 C -3.9411 2.3009 0.0 0
M  V30 15 O 1.2389 -0.6961 0.0 0
M  V30 16 C 3.8349 -0.6961 0.0 0 CFG=2
M  V30 17 C 2.5369 6.065 0.0 0
M  V30 18 C 3.8349 3.8113 0.0 0
M  V30 19 C -3.9528 3.8113 0.0 0
M  V30 20 C 1.2271 -2.1829 0.0 0 CFG=1
M  V30 21 O 5.121 0.0707 0.0 0
M  V30 22 C 3.8231 -2.1829 0.0 0 CFG=2
M  V30 23 C 3.8231 6.832 0.0 0
M  V30 24 C 5.121 4.5782 0.0 0
M  V30 25 O -5.2626 4.5782 0.0 0
M  V30 26 C 2.5133 -2.9145 0.0 0 CFG=2
M  V30 27 C -0.0825 -2.9145 0.0 0
M  V30 28 O 5.1092 -2.9145 0.0 0
M  V30 29 C 5.1092 6.0886 0.0 0
M  V30 30 O 2.5015 -4.4012 0.0 0
M  V30 31 O -1.3923 -2.1593 0.0 0
M  V30 32 O 6.3954 6.8556 0.0 0
M  V30 33 C -2.7021 -2.8909 0.0 0 CFG=2
M  V30 34 O -4.0118 -2.1357 0.0 0
M  V30 35 C -2.7139 -4.3776 0.0 0 CFG=2
M  V30 36 C -5.3216 -2.8673 0.0 0 CFG=2
M  V30 37 O -1.4277 -5.121 0.0 0
M  V30 38 C -4.0236 -5.121 0.0 0 CFG=1
M  V30 39 C -5.3334 -4.354 0.0 0 CFG=1
M  V30 40 C -6.6314 -2.1121 0.0 0
M  V30 41 O -4.0354 -6.6078 0.0 0
M  V30 42 O -6.6432 -5.0974 0.0 0
M  V30 END ATOM
M  V30 BEGIN BOND
M  V30 1 2 1 2
M  V30 2 1 2 3
M  V30 3 1 2 4
M  V30 4 1 3 5
M  V30 5 2 3 6
M  V30 6 2 4 7
M  V30 7 1 4 8
M  V30 8 1 9 5 CFG=1
M  V30 9 1 6 10
M  V30 10 1 6 11
M  V30 11 1 7 12
M  V30 12 1 8 13
M  V30 13 2 8 14
M  V30 14 1 9 15
M  V30 15 1 9 16
M  V30 16 2 11 17
M  V30 17 1 11 18
M  V30 18 2 12 19
M  V30 19 1 15 20
M  V30 20 1 16 21 CFG=3
M  V30 21 1 16 22
M  V30 22 1 17 23
M  V30 23 2 18 24
M  V30 24 1 19 25
M  V30 25 1 20 26
M  V30 26 1 20 27 CFG=1
M  V30 27 1 22 28 CFG=1
M  V30 28 2 23 29
M  V30 29 1 26 30 CFG=3
M  V30 30 1 27 31
M  V30 31 1 29 32
M  V30 32 1 33 31 CFG=1
M  V30 33 1 33 34
M  V30 34 1 33 35
M  V30 35 1 34 36
M  V30 36 1 35 37 CFG=3
M  V30 37 1 35 38
M  V30 38 1 36 39
M  V30 39 1 36 40 CFG=3
M  V30 40 1 38 41 CFG=3
M  V30 41 1 39 42 CFG=1
M  V30 42 1 7 10
M  V30 43 1 14 19
M  V30 44 1 22 26
M  V30 45 1 24 29
M  V30 46 1 38 39
M  V30 END BOND
M  V30 BEGIN COLLECTION
M  V30 MDLV30/STEABS ATOMS=(10 9 16 20 22 26 33 35 36 38 39)
M  V30 END COLLECTION
M  V30 END CTAB
M  END
>  <Molecule Name>
Kaempferol 3-O-rutinoside

$$$$
Quercetin 3-O-rhamnoside
Actelion Java MolfileCreator 2.0

  0  0  0  0  0  0              0 V3000
M  V30 BEGIN CTAB
M  V30 COUNTS 32 35 0 0 0
M  V30 BEGIN ATOM
M  V30 1 O 0.0 0.0 0.0 0
M  V30 2 C 1.2894 0.7571 0.0 0
M  V30 3 C 2.5788 0.0236 0.0 0
M  V30 4 C 1.2776 2.2713 0.0 0
M  V30 5 O 2.567 -1.4668 0.0 0
M  V30 6 C 3.8683 0.7807 0.0 0
M  V30 7 C 2.567 3.0284 0.0 0
M  V30 8 C -0.0354 3.0284 0.0 0
M  V30 9 C 1.2539 -2.2003 0.0 0 CFG=2
M  V30 10 O 3.8564 2.2949 0.0 0
M  V30 11 C 5.1577 0.0473 0.0 0
M  V30 12 C 2.5552 4.5426 0.0 0
M  V30 13 O -1.3485 2.2949 0.0 0
M  V30 14 C -0.0473 4.5426 0.0 0
M  V30 15 O -0.0591 -1.4432 0.0 0
M  V30 16 C 1.2421 -3.6908 0.0 0 CFG=2
M  V30 17 C 6.4471 0.8044 0.0 0
M  V30 18 C 5.1459 -1.4432 0.0 0
M  V30 19 C 1.2421 5.3115 0.0 0
M  V30 20 C -1.3722 -2.1766 0.0 0 CFG=2
M  V30 21 O 2.5315 -4.4361 0.0 0
M  V30 22 C -0.0709 -4.4361 0.0 0 CFG=1
M  V30 23 C 7.7366 0.0709 0.0 0
M  V30 24 C 6.4353 -2.1766 0.0 0
M  V30 25 O 1.2302 6.8257 0.0 0
M  V30 26 C -1.384 -3.6672 0.0 0 CFG=1
M  V30 27 C -2.6853 -1.4195 0.0 0
M  V30 28 O -0.0828 -5.9266 0.0 0
M  V30 29 O 9.026 0.828 0.0 0
M  V30 30 C 7.7247 -1.4195 0.0 0
M  V30 31 O -2.6971 -4.4124 0.0 0
M  V30 32 O 9.0142 -2.153 0.0 0
M  V30 END ATOM
M  V30 BEGIN BOND
M  V30 1 2 1 2
M  V30 2 1 2 3
M  V30 3 1 2 4
M  V30 4 1 3 5
M  V30 5 2 3 6
M  V30 6 2 4 7
M  V30 7 1 4 8
M  V30 8 1 9 5 CFG=1
M  V30 9 1 6 10
M  V30 10 1 6 11
M  V30 11 1 7 12
M  V30 12 1 8 13
M  V30 13 2 8 14
M  V30 14 1 9 15
M  V30 15 1 9 16
M  V30 16 2 11 17
M  V30 17 1 11 18
M  V30 18 2 12 19
M  V30 19 1 15 20
M  V30 20 1 16 21 CFG=3
M  V30 21 1 16 22
M  V30 22 1 17 23
M  V30 23 2 18 24
M  V30 24 1 19 25
M  V30 25 1 20 26
M  V30 26 1 20 27 CFG=3
M  V30 27 1 22 28 CFG=3
M  V30 28 1 23 29
M  V30 29 2 23 30
M  V30 30 1 26 31 CFG=1
M  V30 31 1 30 32
M  V30 32 1 7 10
M  V30 33 1 14 19
M  V30 34 1 22 26
M  V30 35 1 24 30
M  V30 END BOND
M  V30 BEGIN COLLECTION
M  V30 MDLV30/STEABS ATOMS=(5 9 16 20 22 26)
M  V30 END COLLECTION
M  V30 END CTAB
M  END
>  <Molecule Name>
Quercetin 3-O-rhamnoside

$$$$
Isorhamnetin
Actelion Java MolfileCreator 2.0

  0  0  0  0  0  0              0 V3000
M  V30 BEGIN CTAB
M  V30 COUNTS 23 25 0 0 0
M  V30 BEGIN ATOM
M  V30 1 O 0.0 0.0 0.0 0
M  V30 2 C -0.0117 1.5097 0.0 0
M  V30 3 C 1.2738 2.2763 0.0 0
M  V30 4 C -1.321 2.2763 0.0 0
M  V30 5 O 2.5594 1.5333 0.0 0
M  V30 6 C 1.262 3.7861 0.0 0
M  V30 7 C -1.3328 3.7861 0.0 0
M  V30 8 C -2.6302 1.5333 0.0 0
M  V30 9 O -0.0471 4.5409 0.0 0
M  V30 10 C 2.5476 4.5409 0.0 0
M  V30 11 C -2.642 4.5409 0.0 0
M  V30 12 O -2.642 0.0471 0.0 0
M  V30 13 C -3.9394 2.2999 0.0 0
M  V30 14 C 3.8333 3.8097 0.0 0
M  V30 15 C 2.5358 6.0507 0.0 0
M  V30 16 C -3.9512 3.8097 0.0 0
M  V30 17 C 5.1189 4.5645 0.0 0
M  V30 18 C 3.8215 6.8173 0.0 0
M  V30 19 O -5.2604 4.5645 0.0 0
M  V30 20 O 6.4045 3.8333 0.0 0
M  V30 21 C 5.1071 6.0743 0.0 0
M  V30 22 C 7.6901 4.5881 0.0 0
M  V30 23 O 6.3927 6.8409 0.0 0
M  V30 END ATOM
M  V30 BEGIN BOND
M  V30 1 2 1 2
M  V30 2 1 2 3
M  V30 3 1 2 4
M  V30 4 1 3 5
M  V30 5 2 3 6
M  V30 6 2 4 7
M  V30 7 1 4 8
M  V30 8 1 6 9
M  V30 9 1 6 10
M  V30 10 1 7 11
M  V30 11 1 8 12
M  V30 12 2 8 13
M  V30 13 2 10 14
M  V30 14 1 10 15
M  V30 15 2 11 16
M  V30 16 1 14 17
M  V30 17 2 15 18
M  V30 18 1 16 19
M  V30 19 1 17 20
M  V30 20 2 17 21
M  V30 21 1 20 22
M  V30 22 1 21 23
M  V30 23 1 7 9
M  V30 24 1 13 16
M  V30 25 1 18 21
M  V30 END BOND
M  V30 END CTAB
M  END
>  <Molecule Name>
Isorhamnetin

$$$$
Isorhamnetin-3-O-rutioside
Actelion Java MolfileCreator 2.0

  0  0  0  0  0  0              0 V3000
M  V30 BEGIN CTAB
M  V30 COUNTS 44 48 0 0 0
M  V30 BEGIN ATOM
M  V30 1 O 0.0 0.0 0.0 0
M  V30 2 C -0.0118 1.5123 0.0 0
M  V30 3 C 1.276 2.2685 0.0 0
M  V30 4 C -1.3232 2.2685 0.0 0
M  V30 5 O 2.5638 1.5359 0.0 0
M  V30 6 C 1.2642 3.7808 0.0 0
M  V30 7 C -1.3351 3.7808 0.0 0
M  V30 8 C -2.6347 1.5359 0.0 0
M  V30 9 C 2.552 0.0472 0.0 0 CFG=2
M  V30 10 O -0.0472 4.537 0.0 0
M  V30 11 C 2.552 4.537 0.0 0
M  V30 12 C -2.6465 4.537 0.0 0
M  V30 13 O -2.6465 0.0472 0.0 0
M  V30 14 C -3.9462 2.2921 0.0 0
M  V30 15 O 1.2405 -0.6852 0.0 0
M  V30 16 C 3.8399 -0.6852 0.0 0 CFG=2
M  V30 17 C 3.8399 3.8044 0.0 0
M  V30 18 C 2.5402 6.0493 0.0 0
M  V30 19 C -3.958 3.8044 0.0 0
M  V30 20 C 1.2287 -2.1739 0.0 0 CFG=1
M  V30 21 O 5.1277 0.0708 0.0 0
M  V30 22 C 3.8281 -2.1739 0.0 0 CFG=2
M  V30 23 C 5.1277 4.5606 0.0 0
M  V30 24 C 3.8281 6.8173 0.0 0
M  V30 25 O -5.2695 4.5606 0.0 0
M  V30 26 C 2.5166 -2.9183 0.0 0 CFG=2
M  V30 27 C -0.0827 -2.9183 0.0 0
M  V30 28 O 5.1159 -2.9183 0.0 0
M  V30 29 O 6.4156 3.8281 0.0 0
M  V30 30 C 5.1159 6.0729 0.0 0
M  V30 31 O 2.5048 -4.407 0.0 0
M  V30 32 O -1.3941 -2.1503 0.0 0
M  V30 33 C 7.7034 4.5842 0.0 0
M  V30 34 O 6.4038 6.8409 0.0 0
M  V30 35 C -2.7056 -2.8947 0.0 0 CFG=2
M  V30 36 O -4.0171 -2.1267 0.0 0
M  V30 37 C -2.7174 -4.3834 0.0 0 CFG=2
M  V30 38 C -5.3286 -2.871 0.0 0 CFG=2
M  V30 39 O -1.4296 -5.1159 0.0 0
M  V30 40 C -4.0289 -5.1159 0.0 0 CFG=1
M  V30 41 C -5.3404 -4.3597 0.0 0 CFG=1
M  V30 42 C -6.6401 -2.103 0.0 0
M  V30 43 O -4.0407 -6.6046 0.0 0
M  V30 44 O -6.6519 -5.0923 0.0 0
M  V30 END ATOM
M  V30 BEGIN BOND
M  V30 1 2 1 2
M  V30 2 1 2 3
M  V30 3 1 2 4
M  V30 4 1 3 5
M  V30 5 2 3 6
M  V30 6 2 4 7
M  V30 7 1 4 8
M  V30 8 1 9 5 CFG=1
M  V30 9 1 6 10
M  V30 10 1 6 11
M  V30 11 1 7 12
M  V30 12 1 8 13
M  V30 13 2 8 14
M  V30 14 1 9 15
M  V30 15 1 9 16
M  V30 16 2 11 17
M  V30 17 1 11 18
M  V30 18 2 12 19
M  V30 19 1 15 20
M  V30 20 1 16 21 CFG=3
M  V30 21 1 16 22
M  V30 22 1 17 23
M  V30 23 2 18 24
M  V30 24 1 19 25
M  V30 25 1 20 26
M  V30 26 1 20 27 CFG=1
M  V30 27 1 22 28 CFG=1
M  V30 28 1 23 29
M  V30 29 2 23 30
M  V30 30 1 26 31 CFG=3
M  V30 31 1 27 32
M  V30 32 1 29 33
M  V30 33 1 30 34
M  V30 34 1 35 32 CFG=1
M  V30 35 1 35 36
M  V30 36 1 35 37
M  V30 37 1 36 38
M  V30 38 1 37 39 CFG=3
M  V30 39 1 37 40
M  V30 40 1 38 41
M  V30 41 1 38 42 CFG=3
M  V30 42 1 40 43 CFG=3
M  V30 43 1 41 44 CFG=1
M  V30 44 1 7 10
M  V30 45 1 14 19
M  V30 46 1 22 26
M  V30 47 1 24 30
M  V30 48 1 40 41
M  V30 END BOND
M  V30 BEGIN COLLECTION
M  V30 MDLV30/STEABS ATOMS=(10 9 16 20 22 26 35 37 38 40 41)
M  V30 END COLLECTION
M  V30 END CTAB
M  END
>  <Molecule Name>
Isorhamnetin-3-O-rutioside

$$$$
Isorhamnetin-3-O-glucoside   
Actelion Java MolfileCreator 2.0

  0  0  0  0  0  0              0 V3000
M  V30 BEGIN CTAB
M  V30 COUNTS 34 37 0 0 0
M  V30 BEGIN ATOM
M  V30 1 O 0.0 0.0 0.0 0
M  V30 2 C -0.0118 1.5131 0.0 0
M  V30 3 C 1.2766 2.2696 0.0 0
M  V30 4 C -1.3239 2.2696 0.0 0
M  V30 5 O 2.5651 1.5367 0.0 0
M  V30 6 C 1.2648 3.7827 0.0 0
M  V30 7 C -1.3357 3.7827 0.0 0
M  V30 8 C -2.6361 1.5367 0.0 0
M  V30 9 C 2.5533 0.0472 0.0 0 CFG=2
M  V30 10 O -0.0472 4.5393 0.0 0
M  V30 11 C 2.5533 4.5393 0.0 0
M  V30 12 C -2.6479 4.5393 0.0 0
M  V30 13 O -2.6479 0.0472 0.0 0
M  V30 14 C -3.9482 2.2932 0.0 0
M  V30 15 O 1.2412 -0.6974 0.0 0
M  V30 16 C 3.8418 -0.6974 0.0 0 CFG=2
M  V30 17 C 3.8418 3.8063 0.0 0
M  V30 18 C 2.5415 6.0524 0.0 0
M  V30 19 C -3.96 3.8063 0.0 0
M  V30 20 C 1.2293 -2.1869 0.0 0 CFG=1
M  V30 21 O 5.1303 0.0591 0.0 0
M  V30 22 C 3.83 -2.1869 0.0 0 CFG=2
M  V30 23 C 5.1303 4.5629 0.0 0
M  V30 24 C 3.83 6.8089 0.0 0
M  V30 25 O -5.2722 4.5629 0.0 0
M  V30 26 C 2.5178 -2.9316 0.0 0 CFG=2
M  V30 27 C -0.0827 -2.9316 0.0 0
M  V30 28 O 5.1185 -2.9316 0.0 0
M  V30 29 O 6.4188 3.83 0.0 0
M  V30 30 C 5.1185 6.076 0.0 0
M  V30 31 O 2.506 -4.421 0.0 0
M  V30 32 O -1.3948 -2.1632 0.0 0
M  V30 33 C 7.7073 4.5865 0.0 0
M  V30 34 O 6.407 6.8326 0.0 0
M  V30 END ATOM
M  V30 BEGIN BOND
M  V30 1 2 1 2
M  V30 2 1 2 3
M  V30 3 1 2 4
M  V30 4 1 3 5
M  V30 5 2 3 6
M  V30 6 2 4 7
M  V30 7 1 4 8
M  V30 8 1 9 5 CFG=1
M  V30 9 1 6 10
M  V30 10 1 6 11
M  V30 11 1 7 12
M  V30 12 1 8 13
M  V30 13 2 8 14
M  V30 14 1 9 15
M  V30 15 1 9 16
M  V30 16 2 11 17
M  V30 17 1 11 18
M  V30 18 2 12 19
M  V30 19 1 15 20
M  V30 20 1 16 21 CFG=3
M  V30 21 1 16 22
M  V30 22 1 17 23
M  V30 23 2 18 24
M  V30 24 1 19 25
M  V30 25 1 20 26
M  V30 26 1 20 27 CFG=1
M  V30 27 1 22 28 CFG=1
M  V30 28 1 23 29
M  V30 29 2 23 30
M  V30 30 1 26 31 CFG=3
M  V30 31 1 27 32
M  V30 32 1 29 33
M  V30 33 1 30 34
M  V30 34 1 7 10
M  V30 35 1 14 19
M  V30 36 1 22 26
M  V30 37 1 24 30
M  V30 END BOND
M  V30 BEGIN COLLECTION
M  V30 MDLV30/STEABS ATOMS=(5 9 16 20 22 26)
M  V30 END COLLECTION
M  V30 END CTAB
M  END
>  <Molecule Name>
Isorhamnetin-3-O-glucoside   

$$$$
Isoorientin  
Actelion Java MolfileCreator 2.0

  0  0  0  0  0  0              0 V3000
M  V30 BEGIN CTAB
M  V30 COUNTS 32 35 0 0 0
M  V30 BEGIN ATOM
M  V30 1 O 0.0 0.0 0.0 0
M  V30 2 C -0.0118 1.5111 0.0 0
M  V30 3 C -1.3222 2.2666 0.0 0
M  V30 4 C 1.2749 2.2666 0.0 0
M  V30 5 C -2.6326 1.5347 0.0 0
M  V30 6 C -1.334 3.7777 0.0 0
M  V30 7 C 1.2631 3.7777 0.0 0
M  V30 8 O -2.6444 0.0472 0.0 0
M  V30 9 C -3.943 2.2902 0.0 0
M  V30 10 O -0.0472 4.5333 0.0 0
M  V30 11 C -2.6444 4.5333 0.0 0
M  V30 12 C 2.5499 4.5333 0.0 0
M  V30 13 C -3.9548 3.8013 0.0 0
M  V30 14 C -5.2534 1.5583 0.0 0 CFG=2
M  V30 15 C 3.8368 3.8013 0.0 0
M  V30 16 C 2.5381 6.0444 0.0 0
M  V30 17 O -5.2652 4.5569 0.0 0
M  V30 18 O -6.5638 2.3138 0.0 0
M  V30 19 C -5.2652 0.0708 0.0 0 CFG=2
M  V30 20 C 5.1236 4.5569 0.0 0
M  V30 21 C 3.8249 6.7999 0.0 0
M  V30 22 C -7.8743 1.5819 0.0 0 CFG=1
M  V30 23 O -3.9784 -0.6611 0.0 0
M  V30 24 C -6.5756 -0.6611 0.0 0 CFG=2
M  V30 25 O 6.4104 3.8249 0.0 0
M  V30 26 C 5.1118 6.068 0.0 0
M  V30 27 C -7.8861 0.0944 0.0 0 CFG=2
M  V30 28 C -9.1847 2.3374 0.0 0
M  V30 29 O -6.5874 -2.1486 0.0 0
M  V30 30 O 6.3986 6.8236 0.0 0
M  V30 31 O -9.1965 -0.6374 0.0 0
M  V30 32 O -10.4951 1.6055 0.0 0
M  V30 END ATOM
M  V30 BEGIN BOND
M  V30 1 2 1 2
M  V30 2 1 2 3
M  V30 3 1 2 4
M  V30 4 2 3 5
M  V30 5 1 3 6
M  V30 6 2 4 7
M  V30 7 1 5 8
M  V30 8 1 5 9
M  V30 9 1 6 10
M  V30 10 2 6 11
M  V30 11 1 7 12
M  V30 12 2 9 13
M  V30 13 1 14 9 CFG=1
M  V30 14 2 12 15
M  V30 15 1 12 16
M  V30 16 1 13 17
M  V30 17 1 14 18
M  V30 18 1 14 19
M  V30 19 1 15 20
M  V30 20 2 16 21
M  V30 21 1 18 22
M  V30 22 1 19 23 CFG=3
M  V30 23 1 19 24
M  V30 24 1 20 25
M  V30 25 2 20 26
M  V30 26 1 22 27
M  V30 27 1 22 28 CFG=1
M  V30 28 1 24 29 CFG=1
M  V30 29 1 26 30
M  V30 30 1 27 31 CFG=3
M  V30 31 1 28 32
M  V30 32 1 7 10
M  V30 33 1 11 13
M  V30 34 1 21 26
M  V30 35 1 24 27
M  V30 END BOND
M  V30 BEGIN COLLECTION
M  V30 MDLV30/STEABS ATOMS=(5 14 19 22 24 27)
M  V30 END COLLECTION
M  V30 END CTAB
M  END
>  <Molecule Name>
Isoorientin  

$$$$
Calycosin (3′-hydroxyl-formononetin)
Actelion Java MolfileCreator 2.0

  0  0  0  0  0  0              0 V3000
M  V30 BEGIN CTAB
M  V30 COUNTS 21 23 0 0 0
M  V30 BEGIN ATOM
M  V30 1 O 0.0 0.0 0.0 0
M  V30 2 C -0.0117 1.5084 0.0 0
M  V30 3 C 1.2727 2.2744 0.0 0
M  V30 4 C -1.3199 2.2744 0.0 0
M  V30 5 C 2.5573 1.532 0.0 0
M  V30 6 C 1.2609 3.7829 0.0 0
M  V30 7 C -1.3316 3.7829 0.0 0
M  V30 8 C -2.628 1.532 0.0 0
M  V30 9 C 3.8418 2.298 0.0 0
M  V30 10 C 2.5455 0.0471 0.0 0
M  V30 11 O -0.0471 4.5489 0.0 0
M  V30 12 C -2.6398 4.5489 0.0 0
M  V30 13 C -3.9361 2.298 0.0 0
M  V30 14 C 5.1264 1.5555 0.0 0
M  V30 15 C 3.83 -0.6953 0.0 0
M  V30 16 C -3.9479 3.8065 0.0 0
M  V30 17 O 6.4109 2.3216 0.0 0
M  V30 18 C 5.1146 0.0707 0.0 0
M  V30 19 O -5.256 4.5725 0.0 0
M  V30 20 O 6.3991 -0.6717 0.0 0
M  V30 21 C 7.6837 0.0942 0.0 0
M  V30 END ATOM
M  V30 BEGIN BOND
M  V30 1 2 1 2
M  V30 2 1 2 3
M  V30 3 1 2 4
M  V30 4 1 3 5
M  V30 5 2 3 6
M  V30 6 2 4 7
M  V30 7 1 4 8
M  V30 8 2 5 9
M  V30 9 1 5 10
M  V30 10 1 6 11
M  V30 11 1 7 12
M  V30 12 2 8 13
M  V30 13 1 9 14
M  V30 14 2 10 15
M  V30 15 2 12 16
M  V30 16 1 14 17
M  V30 17 2 14 18
M  V30 18 1 16 19
M  V30 19 1 18 20
M  V30 20 1 20 21
M  V30 21 1 7 11
M  V30 22 1 13 16
M  V30 23 1 15 18
M  V30 END BOND
M  V30 END CTAB
M  END
>  <Molecule Name>
Calycosin (3′-hydroxyl-formononetin)

$$$$
Stigmasterol
Actelion Java MolfileCreator 2.0

  0  0  0  0  0  0              0 V3000
M  V30 BEGIN CTAB
M  V30 COUNTS 30 33 0 0 0
M  V30 BEGIN ATOM
M  V30 1 O 0.0 0.0 0.0 0
M  V30 2 C 1.2891 0.7687 0.0 0 CFG=2
M  V30 3 C 2.5783 0.0236 0.0 0
M  V30 4 C 1.2773 2.2826 0.0 0
M  V30 5 C 3.8675 0.7924 0.0 0
M  V30 6 C 2.5665 3.0396 0.0 0
M  V30 7 C 5.1567 0.0473 0.0 0
M  V30 8 C 3.8557 2.3063 0.0 0 CFG=2
M  V30 9 C 6.4459 0.816 0.0 0
M  V30 10 C 5.1449 3.0633 0.0 0 CFG=2
M  V30 11 C 3.8439 3.8202 0.0 0
M  V30 12 C 6.4341 2.33 0.0 0 CFG=2
M  V30 13 C 5.1331 4.5772 0.0 0
M  V30 14 C 7.7233 3.0869 0.0 0 CFG=1
M  V30 15 C 6.4222 5.3341 0.0 0
M  V30 16 C 7.7114 4.6008 0.0 0 CFG=2
M  V30 17 C 9.1426 2.6375 0.0 0
M  V30 18 C 9.1307 5.0739 0.0 0 CFG=2
M  V30 19 C 7.8534 6.1029 0.0 0
M  V30 20 C 10.0178 3.8675 0.0 0
M  V30 21 C 9.5802 6.5169 0.0 0 CFG=1
M  V30 22 C 11.0349 6.8362 0.0 0
M  V30 23 C 8.563 7.6405 0.0 0
M  V30 24 C 11.4844 8.2792 0.0 0
M  V30 25 C 12.9392 8.5985 0.0 0 CFG=2
M  V30 26 C 13.3886 10.0414 0.0 0
M  V30 27 C 13.9327 7.4985 0.0 0
M  V30 28 C 12.3714 11.165 0.0 0
M  V30 29 C 14.8434 10.3608 0.0 0
M  V30 30 C 15.3874 7.8179 0.0 0
M  V30 END ATOM
M  V30 BEGIN BOND
M  V30 1 1 2 1 CFG=1
M  V30 2 1 2 3
M  V30 3 1 2 4
M  V30 4 1 3 5
M  V30 5 1 4 6
M  V30 6 2 5 7
M  V30 7 1 5 8
M  V30 8 1 7 9
M  V30 9 1 8 10
M  V30 10 1 8 11 CFG=1
M  V30 11 1 12 9 CFG=3
M  V30 12 1 10 13 CFG=1
M  V30 13 1 12 14
M  V30 14 1 13 15
M  V30 15 1 14 16
M  V30 16 1 14 17 CFG=1
M  V30 17 1 16 18
M  V30 18 1 16 19 CFG=1
M  V30 19 1 17 20
M  V30 20 1 18 21
M  V30 21 1 21 22
M  V30 22 1 21 23 CFG=3
M  V30 23 2 22 24
M  V30 24 1 25 24 CFG=3
M  V30 25 1 25 26
M  V30 26 1 25 27
M  V30 27 1 26 28
M  V30 28 1 26 29
M  V30 29 1 27 30
M  V30 30 1 6 8
M  V30 31 1 10 12
M  V30 32 1 15 16
M  V30 33 1 18 20 CFG=1
M  V30 END BOND
M  V30 BEGIN COLLECTION
M  V30 MDLV30/STEABS ATOMS=(9 2 8 10 12 14 16 18 21 25)
M  V30 END COLLECTION
M  V30 END CTAB
M  END
>  <Molecule Name>
Stigmasterol

$$$$
β-sitosterol
Actelion Java MolfileCreator 2.0

  0  0  0  0  0  0              0 V3000
M  V30 BEGIN CTAB
M  V30 COUNTS 30 33 0 0 0
M  V30 BEGIN ATOM
M  V30 1 O 0.0 0.0 0.0 0
M  V30 2 C 1.2881 0.7681 0.0 0 CFG=2
M  V30 3 C 2.5762 0.0236 0.0 0
M  V30 4 C 1.2762 2.2807 0.0 0
M  V30 5 C 3.8643 0.7917 0.0 0
M  V30 6 C 2.5643 3.0489 0.0 0
M  V30 7 C 5.1524 0.0472 0.0 0
M  V30 8 C 3.8524 2.3044 0.0 0 CFG=2
M  V30 9 C 6.4405 0.8154 0.0 0
M  V30 10 C 5.1405 3.0725 0.0 0 CFG=2
M  V30 11 C 3.8406 3.817 0.0 0
M  V30 12 C 6.4287 2.328 0.0 0 CFG=2
M  V30 13 C 5.1287 4.5851 0.0 0
M  V30 14 C 7.7168 3.0961 0.0 0 CFG=1
M  V30 15 C 6.4168 5.3533 0.0 0
M  V30 16 C 7.7049 4.6088 0.0 0 CFG=2
M  V30 17 C 9.1349 2.6471 0.0 0
M  V30 18 C 9.123 5.0815 0.0 0 CFG=2
M  V30 19 C 7.8467 6.1096 0.0 0
M  V30 20 C 10.0093 3.8761 0.0 0
M  V30 21 C 9.5721 6.5232 0.0 0 CFG=1
M  V30 22 C 11.0256 6.8423 0.0 0
M  V30 23 C 8.5558 7.6459 0.0 0
M  V30 24 C 11.4747 8.284 0.0 0
M  V30 25 C 12.9283 8.6031 0.0 0 CFG=2
M  V30 26 C 13.3773 10.0448 0.0 0
M  V30 27 C 13.9209 7.504 0.0 0
M  V30 28 C 12.361 11.1675 0.0 0
M  V30 29 C 14.8309 10.3639 0.0 0
M  V30 30 C 15.3745 7.8231 0.0 0
M  V30 END ATOM
M  V30 BEGIN BOND
M  V30 1 1 2 1 CFG=1
M  V30 2 1 2 3
M  V30 3 1 2 4
M  V30 4 1 3 5
M  V30 5 1 4 6
M  V30 6 2 5 7
M  V30 7 1 5 8
M  V30 8 1 7 9
M  V30 9 1 8 10
M  V30 10 1 8 11 CFG=1
M  V30 11 1 12 9 CFG=3
M  V30 12 1 10 13 CFG=1
M  V30 13 1 12 14
M  V30 14 1 13 15
M  V30 15 1 14 16
M  V30 16 1 14 17 CFG=1
M  V30 17 1 16 18
M  V30 18 1 16 19 CFG=1
M  V30 19 1 17 20
M  V30 20 1 18 21
M  V30 21 1 21 22
M  V30 22 1 21 23 CFG=3
M  V30 23 1 22 24
M  V30 24 1 25 24 CFG=3
M  V30 25 1 25 26
M  V30 26 1 25 27
M  V30 27 1 26 28
M  V30 28 1 26 29
M  V30 29 1 27 30
M  V30 30 1 6 8
M  V30 31 1 10 12
M  V30 32 1 15 16
M  V30 33 1 18 20 CFG=1
M  V30 END BOND
M  V30 BEGIN COLLECTION
M  V30 MDLV30/STEABS ATOMS=(9 2 8 10 12 14 16 18 21 25)
M  V30 END COLLECTION
M  V30 END CTAB
M  END
>  <Molecule Name>
β-sitosterol

$$$$
7-Oxositosterol    
Actelion Java MolfileCreator 2.0

  0  0  0  0  0  0              0 V3000
M  V30 BEGIN CTAB
M  V30 COUNTS 31 34 0 0 0
M  V30 BEGIN ATOM
M  V30 1 O 0.0 0.0 0.0 0
M  V30 2 C -1.3069 0.7535 0.0 0
M  V30 3 C -2.6138 0.0235 0.0 0
M  V30 4 C -1.3187 2.2606 0.0 0
M  V30 5 C -3.9208 0.777 0.0 0
M  V30 6 C -2.6256 3.0141 0.0 0
M  V30 7 C -0.0353 3.0141 0.0 0
M  V30 8 C -3.9325 2.2841 0.0 0 CFG=1
M  V30 9 C -5.2277 0.047 0.0 0
M  V30 10 C -2.6374 4.5212 0.0 0
M  V30 11 C -0.047 4.5212 0.0 0 CFG=2
M  V30 12 C 1.3775 2.5667 0.0 0
M  V30 13 C -5.2395 3.0377 0.0 0
M  V30 14 C -3.9443 3.7912 0.0 0
M  V30 15 C -6.5346 0.8006 0.0 0
M  V30 16 C -1.354 5.2748 0.0 0
M  V30 17 C 1.3658 4.9922 0.0 0
M  V30 18 C 0.0941 6.0166 0.0 0
M  V30 19 C 2.2488 3.7912 0.0 0
M  V30 20 C -6.5464 2.3077 0.0 0
M  V30 21 O -7.8416 0.0706 0.0 0
M  V30 22 C 1.8132 6.4287 0.0 0
M  V30 23 C 3.2614 6.7466 0.0 0
M  V30 24 C 0.7417 7.5001 0.0 0
M  V30 25 C 3.7088 8.183 0.0 0
M  V30 26 C 5.157 8.5009 0.0 0
M  V30 27 C 5.5338 9.9609 0.0 0
M  V30 28 C 6.2049 7.453 0.0 0
M  V30 29 C 4.4624 11.0324 0.0 0
M  V30 30 C 6.9703 10.3612 0.0 0
M  V30 31 C 7.6414 7.8533 0.0 0
M  V30 END ATOM
M  V30 BEGIN BOND
M  V30 1 2 1 2
M  V30 2 1 2 3
M  V30 3 1 2 4
M  V30 4 2 3 5
M  V30 5 1 4 6
M  V30 6 1 4 7
M  V30 7 1 5 8
M  V30 8 1 5 9
M  V30 9 1 6 10
M  V30 10 1 7 11
M  V30 11 1 7 12
M  V30 12 1 8 13
M  V30 13 1 8 14 CFG=1
M  V30 14 1 9 15
M  V30 15 1 10 16
M  V30 16 1 11 17
M  V30 17 1 11 18 CFG=1
M  V30 18 1 12 19
M  V30 19 1 13 20
M  V30 20 1 15 21
M  V30 21 1 17 22
M  V30 22 1 22 23
M  V30 23 1 22 24
M  V30 24 1 23 25
M  V30 25 1 25 26
M  V30 26 1 26 27
M  V30 27 1 26 28
M  V30 28 1 27 29
M  V30 29 1 27 30
M  V30 30 1 28 31
M  V30 31 1 6 8
M  V30 32 1 11 16
M  V30 33 1 15 20
M  V30 34 1 17 19
M  V30 END BOND
M  V30 BEGIN COLLECTION
M  V30 MDLV30/STEABS ATOMS=(2 8 11)
M  V30 END COLLECTION
M  V30 END CTAB
M  END
>  <Molecule Name>
7-Oxositosterol    

$$$$
Palmitic acid
Actelion Java MolfileCreator 2.0

  0  0  0  0  0  0              0 V3000
M  V30 BEGIN CTAB
M  V30 COUNTS 18 17 0 0 0
M  V30 BEGIN ATOM
M  V30 1 O 0.0 0.0 0.0 0
M  V30 2 C -0.0117 -1.4783 0.0 0
M  V30 3 O 1.2671 -2.2175 0.0 0
M  V30 4 C -1.314 -2.2175 0.0 0
M  V30 5 C -2.6164 -1.4548 0.0 0
M  V30 6 C -3.9187 -2.194 0.0 0
M  V30 7 C -5.2211 -1.4314 0.0 0
M  V30 8 C -6.5234 -2.1705 0.0 0
M  V30 9 C -7.8258 -1.4079 0.0 0
M  V30 10 C -9.1281 -2.1471 0.0 0
M  V30 11 C -10.4305 -1.3844 0.0 0
M  V30 12 C -11.7328 -2.1236 0.0 0
M  V30 13 C -13.0352 -1.361 0.0 0
M  V30 14 C -14.3375 -2.1001 0.0 0
M  V30 15 C -15.6399 -1.3375 0.0 0
M  V30 16 C -16.9422 -2.0767 0.0 0
M  V30 17 C -18.2446 -1.314 0.0 0
M  V30 18 C -19.5469 -2.0532 0.0 0
M  V30 END ATOM
M  V30 BEGIN BOND
M  V30 1 2 1 2
M  V30 2 1 2 3
M  V30 3 1 2 4
M  V30 4 1 4 5
M  V30 5 1 5 6
M  V30 6 1 6 7
M  V30 7 1 7 8
M  V30 8 1 8 9
M  V30 9 1 9 10
M  V30 10 1 10 11
M  V30 11 1 11 12
M  V30 12 1 12 13
M  V30 13 1 13 14
M  V30 14 1 14 15
M  V30 15 1 15 16
M  V30 16 1 16 17
M  V30 17 1 17 18
M  V30 END BOND
M  V30 END CTAB
M  END
>  <Molecule Name>
Palmitic acid

$$$$
Tetradecanoic acid, methyl ester     
Actelion Java MolfileCreator 2.0

  0  0  0  0  0  0              0 V3000
M  V30 BEGIN CTAB
M  V30 COUNTS 17 16 0 0 0
M  V30 BEGIN ATOM
M  V30 1 O 0.0 0.0 0.0 0
M  V30 2 C -0.0117 -1.4848 0.0 0
M  V30 3 O 1.2727 -2.2154 0.0 0
M  V30 4 C -1.3198 -2.2154 0.0 0
M  V30 5 C 2.5572 -1.4612 0.0 0
M  V30 6 C -2.6279 -1.4612 0.0 0
M  V30 7 C -3.936 -2.1919 0.0 0
M  V30 8 C -5.2441 -1.4377 0.0 0
M  V30 9 C -6.5521 -2.1683 0.0 0
M  V30 10 C -7.8602 -1.4141 0.0 0
M  V30 11 C -9.1683 -2.1447 0.0 0
M  V30 12 C -10.4764 -1.3905 0.0 0
M  V30 13 C -11.7845 -2.1212 0.0 0
M  V30 14 C -13.0926 -1.367 0.0 0
M  V30 15 C -14.4006 -2.0976 0.0 0
M  V30 16 C -15.7087 -1.3434 0.0 0
M  V30 17 C -17.0168 -2.074 0.0 0
M  V30 END ATOM
M  V30 BEGIN BOND
M  V30 1 2 1 2
M  V30 2 1 2 3
M  V30 3 1 2 4
M  V30 4 1 3 5
M  V30 5 1 4 6
M  V30 6 1 6 7
M  V30 7 1 7 8
M  V30 8 1 8 9
M  V30 9 1 9 10
M  V30 10 1 10 11
M  V30 11 1 11 12
M  V30 12 1 12 13
M  V30 13 1 13 14
M  V30 14 1 14 15
M  V30 15 1 15 16
M  V30 16 1 16 17
M  V30 END BOND
M  V30 END CTAB
M  END
>  <Molecule Name>
Tetradecanoic acid, methyl ester     

$$$$
Heneicosanoic acid, methyl ester  
Actelion Java MolfileCreator 2.0

  0  0  0  0  0  0              0 V3000
M  V30 BEGIN CTAB
M  V30 COUNTS 24 23 0 0 0
M  V30 BEGIN ATOM
M  V30 1 O 0.0 0.0 0.0 0
M  V30 2 C -0.0117 -1.4833 0.0 0
M  V30 3 O 1.2714 -2.2132 0.0 0
M  V30 4 C -1.3185 -2.2132 0.0 0
M  V30 5 C 2.5546 -1.4598 0.0 0
M  V30 6 C -2.6253 -1.4598 0.0 0
M  V30 7 C -3.932 -2.1897 0.0 0
M  V30 8 C -5.2388 -1.4362 0.0 0
M  V30 9 C -6.5456 -2.1661 0.0 0
M  V30 10 C -7.8523 -1.4127 0.0 0
M  V30 11 C -9.1591 -2.1426 0.0 0
M  V30 12 C -10.4659 -1.3891 0.0 0
M  V30 13 C -11.7727 -2.119 0.0 0
M  V30 14 C -13.0794 -1.3656 0.0 0
M  V30 15 C -14.3862 -2.0955 0.0 0
M  V30 16 C -15.693 -1.342 0.0 0
M  V30 17 C -16.9997 -2.0719 0.0 0
M  V30 18 C -18.3065 -1.3185 0.0 0
M  V30 19 C -19.6133 -2.0484 0.0 0
M  V30 20 C -20.92 -1.2949 0.0 0
M  V30 21 C -22.2268 -2.0249 0.0 0
M  V30 22 C -23.5336 -1.2714 0.0 0
M  V30 23 C -24.8403 -2.0013 0.0 0
M  V30 24 C -26.1471 -1.2479 0.0 0
M  V30 END ATOM
M  V30 BEGIN BOND
M  V30 1 2 1 2
M  V30 2 1 2 3
M  V30 3 1 2 4
M  V30 4 1 3 5
M  V30 5 1 4 6
M  V30 6 1 6 7
M  V30 7 1 7 8
M  V30 8 1 8 9
M  V30 9 1 9 10
M  V30 10 1 10 11
M  V30 11 1 11 12
M  V30 12 1 12 13
M  V30 13 1 13 14
M  V30 14 1 14 15
M  V30 15 1 15 16
M  V30 16 1 16 17
M  V30 17 1 17 18
M  V30 18 1 18 19
M  V30 19 1 19 20
M  V30 20 1 20 21
M  V30 21 1 21 22
M  V30 22 1 22 23
M  V30 23 1 23 24
M  V30 END BOND
M  V30 END CTAB
M  END
>  <Molecule Name>
Heneicosanoic acid, methyl ester  

$$$$
Loliolide
Actelion Java MolfileCreator 2.0

  0  0  0  0  0  0              0 V3000
M  V30 BEGIN CTAB
M  V30 COUNTS 14 15 0 0 0
M  V30 BEGIN ATOM
M  V30 1 O 0.0 0.0 0.0 0
M  V30 2 C -1.5021 0.0117 0.0 0
M  V30 3 O -2.3941 -1.1853 0.0 0
M  V30 4 C -2.3941 1.2322 0.0 0
M  V30 5 C -3.8259 -0.7158 0.0 0 CFG=1
M  V30 6 C -3.8259 0.7863 0.0 0
M  V30 7 C -5.1285 -1.4552 0.0 0
M  V30 8 C -3.685 -2.1828 0.0 0
M  V30 9 C -5.1285 1.5491 0.0 0
M  V30 10 C -6.4312 -0.6924 0.0 0 CFG=2
M  V30 11 C -6.4312 0.8097 0.0 0
M  V30 12 C -5.8796 2.8518 0.0 0
M  V30 13 C -4.4009 2.8518 0.0 0
M  V30 14 O -7.7339 -1.4317 0.0 0
M  V30 END ATOM
M  V30 BEGIN BOND
M  V30 1 2 1 2
M  V30 2 1 2 3
M  V30 3 1 2 4
M  V30 4 1 3 5
M  V30 5 2 4 6
M  V30 6 1 5 7
M  V30 7 1 5 8 CFG=1
M  V30 8 1 6 9
M  V30 9 1 7 10
M  V30 10 1 9 11
M  V30 11 1 9 12
M  V30 12 1 9 13
M  V30 13 1 10 14 CFG=1
M  V30 14 1 5 6
M  V30 15 1 10 11
M  V30 END BOND
M  V30 BEGIN COLLECTION
M  V30 MDLV30/STEABS ATOMS=(2 5 10)
M  V30 END COLLECTION
M  V30 END CTAB
M  END
>  <Molecule Name>
Loliolide

$$$$
Behenic alcohol
Actelion Java MolfileCreator 2.0

  0  0  0  0  0  0              0 V3000
M  V30 BEGIN CTAB
M  V30 COUNTS 23 22 0 0 0
M  V30 BEGIN ATOM
M  V30 1 O 0.0 0.0 0.0 0
M  V30 2 C 1.3178 0.7321 0.0 0
M  V30 3 C 2.5938 -0.0418 0.0 0
M  V30 4 C 3.9117 0.6903 0.0 0
M  V30 5 C 5.1877 -0.0836 0.0 0
M  V30 6 C 6.5056 0.6484 0.0 0
M  V30 7 C 7.7816 -0.1255 0.0 0
M  V30 8 C 9.0995 0.6066 0.0 0
M  V30 9 C 10.3755 -0.1673 0.0 0
M  V30 10 C 11.6934 0.5647 0.0 0
M  V30 11 C 12.9694 -0.2091 0.0 0
M  V30 12 C 14.2873 0.5229 0.0 0
M  V30 13 C 15.5633 -0.251 0.0 0
M  V30 14 C 16.8812 0.4811 0.0 0
M  V30 15 C 18.1572 -0.2928 0.0 0
M  V30 16 C 19.4751 0.4392 0.0 0
M  V30 17 C 20.7511 -0.3346 0.0 0
M  V30 18 C 22.069 0.3974 0.0 0
M  V30 19 C 23.345 -0.3765 0.0 0
M  V30 20 C 24.6629 0.3556 0.0 0
M  V30 21 C 25.9389 -0.4183 0.0 0
M  V30 22 C 27.2568 0.3137 0.0 0
M  V30 23 C 28.5328 -0.4602 0.0 0
M  V30 END ATOM
M  V30 BEGIN BOND
M  V30 1 1 1 2
M  V30 2 1 2 3
M  V30 3 1 3 4
M  V30 4 1 4 5
M  V30 5 1 5 6
M  V30 6 1 6 7
M  V30 7 1 7 8
M  V30 8 1 8 9
M  V30 9 1 9 10
M  V30 10 1 10 11
M  V30 11 1 11 12
M  V30 12 1 12 13
M  V30 13 1 13 14
M  V30 14 1 14 15
M  V30 15 1 15 16
M  V30 16 1 16 17
M  V30 17 1 17 18
M  V30 18 1 18 19
M  V30 19 1 19 20
M  V30 20 1 20 21
M  V30 21 1 21 22
M  V30 22 1 22 23
M  V30 END BOND
M  V30 END CTAB
M  END
>  <Molecule Name>
Behenic alcohol

$$$$
7,11,15-trimethyl-3-methylenhexadecan-1,2-diol
Actelion Java MolfileCreator 2.0

  0  0  0  0  0  0              0 V3000
M  V30 BEGIN CTAB
M  V30 COUNTS 22 21 0 0 0
M  V30 BEGIN ATOM
M  V30 1 O 0.0 0.0 0.0 0
M  V30 2 C -0.0118 -1.4872 0.0 0
M  V30 3 C -1.3219 -2.219 0.0 0
M  V30 4 C 1.2747 -2.219 0.0 0
M  V30 5 C -1.3337 -3.7062 0.0 0
M  V30 6 C -2.6321 -1.4636 0.0 0
M  V30 7 O 2.5613 -1.4636 0.0 0
M  V30 8 C -3.9423 -2.1954 0.0 0
M  V30 9 C -5.2525 -1.44 0.0 0
M  V30 10 C -6.5627 -2.1718 0.0 0
M  V30 11 C -7.8728 -1.4164 0.0 0
M  V30 12 C -6.5745 -3.659 0.0 0
M  V30 13 C -9.183 -2.1482 0.0 0
M  V30 14 C -10.4932 -1.3928 0.0 0
M  V30 15 C -11.8034 -2.1246 0.0 0
M  V30 16 C -13.1136 -1.3691 0.0 0
M  V30 17 C -11.8152 -3.6118 0.0 0
M  V30 18 C -14.4238 -2.101 0.0 0
M  V30 19 C -15.7339 -1.3455 0.0 0
M  V30 20 C -17.0441 -2.0774 0.0 0
M  V30 21 C -17.0559 -3.5646 0.0 0
M  V30 22 C -18.3543 -1.3219 0.0 0
M  V30 END ATOM
M  V30 BEGIN BOND
M  V30 1 1 1 2
M  V30 2 1 2 3
M  V30 3 1 2 4
M  V30 4 2 3 5
M  V30 5 1 3 6
M  V30 6 1 4 7
M  V30 7 1 6 8
M  V30 8 1 8 9
M  V30 9 1 9 10
M  V30 10 1 10 11
M  V30 11 1 10 12
M  V30 12 1 11 13
M  V30 13 1 13 14
M  V30 14 1 14 15
M  V30 15 1 15 16
M  V30 16 1 15 17
M  V30 17 1 16 18
M  V30 18 1 18 19
M  V30 19 1 19 20
M  V30 20 1 20 21
M  V30 21 1 20 22
M  V30 END BOND
M  V30 END CTAB
M  END
>  <Molecule Name>
7,11,15-trimethyl-3-methylenhexadecan-1,2-diol

$$$$
D-Erythro-pentose,2-deoxy
Actelion Java MolfileCreator 2.0

  0  0  0  0  0  0              0 V3000
M  V30 BEGIN CTAB
M  V30 COUNTS 9 8 0 0 0
M  V30 BEGIN ATOM
M  V30 1 O 0.0 0.0 0.0 0
M  V30 2 C 1.2919 0.7704 0.0 0
M  V30 3 C 2.5838 0.0237 0.0 0
M  V30 4 C 3.8758 0.7941 0.0 0
M  V30 5 O 3.8639 2.3112 0.0 0
M  V30 6 C 5.1677 0.0474 0.0 0
M  V30 7 O 5.1559 -1.446 0.0 0
M  V30 8 C 6.4597 0.8178 0.0 0
M  V30 9 O 7.7516 0.0711 0.0 0
M  V30 END ATOM
M  V30 BEGIN BOND
M  V30 1 2 1 2
M  V30 2 1 2 3
M  V30 3 1 3 4
M  V30 4 1 4 5
M  V30 5 1 4 6
M  V30 6 1 6 7
M  V30 7 1 6 8
M  V30 8 1 8 9
M  V30 END BOND
M  V30 END CTAB
M  END
>  <Molecule Name>
D-Erythro-pentose,2-deoxy

$$$$
Asparagine
Actelion Java MolfileCreator 2.0

  0  0  0  0  0  0              0 V3000
M  V30 BEGIN CTAB
M  V30 COUNTS 9 8 0 0 0
M  V30 BEGIN ATOM
M  V30 1 O 0.0 0.0 0.0 0
M  V30 2 C -0.0118 -1.4875 0.0 0
M  V30 3 O 1.275 -2.2313 0.0 0
M  V30 4 C -1.3222 -2.2313 0.0 0 CFG=1
M  V30 5 N -1.334 -3.7188 0.0 0
M  V30 6 C -2.6327 -1.4639 0.0 0
M  V30 7 C -3.9431 -2.2077 0.0 0
M  V30 8 O -3.9549 -3.6952 0.0 0
M  V30 9 N -5.2536 -1.4403 0.0 0
M  V30 END ATOM
M  V30 BEGIN BOND
M  V30 1 2 1 2
M  V30 2 1 2 3
M  V30 3 1 2 4
M  V30 4 1 4 5 CFG=1
M  V30 5 1 4 6
M  V30 6 1 6 7
M  V30 7 2 7 8
M  V30 8 1 7 9
M  V30 END BOND
M  V30 BEGIN COLLECTION
M  V30 MDLV30/STEABS ATOMS=(1 4)
M  V30 END COLLECTION
M  V30 END CTAB
M  END
>  <Molecule Name>
Asparagine

$$$$
Gallic acid
Actelion Java MolfileCreator 2.0

  0  0  0  0  0  0              0 V3000
M  V30 BEGIN CTAB
M  V30 COUNTS 12 12 0 0 0
M  V30 BEGIN ATOM
M  V30 1 O 0.0 0.0 0.0 0
M  V30 2 C -0.0118 -1.4897 0.0 0
M  V30 3 O 1.2769 -2.2228 0.0 0
M  V30 4 C -1.3242 -2.2228 0.0 0
M  V30 5 C -1.336 -3.7126 0.0 0
M  V30 6 C -2.6366 -1.4661 0.0 0
M  V30 7 C -2.6485 -4.4457 0.0 0
M  V30 8 C -3.9491 -2.1992 0.0 0
M  V30 9 O -2.6603 -5.9354 0.0 0
M  V30 10 C -3.9609 -3.6889 0.0 0
M  V30 11 O -5.2615 -1.4424 0.0 0
M  V30 12 O -5.2733 -4.422 0.0 0
M  V30 END ATOM
M  V30 BEGIN BOND
M  V30 1 2 1 2
M  V30 2 1 2 3
M  V30 3 1 2 4
M  V30 4 2 4 5
M  V30 5 1 4 6
M  V30 6 1 5 7
M  V30 7 2 6 8
M  V30 8 1 7 9
M  V30 9 2 7 10
M  V30 10 1 8 11
M  V30 11 1 10 12
M  V30 12 1 8 10
M  V30 END BOND
M  V30 END CTAB
M  END
>  <Molecule Name>
Gallic acid

$$$$
Ergosterol peroxide
Actelion Java MolfileCreator 2.0

  0  0  0  0  0  0              0 V3000
M  V30 BEGIN CTAB
M  V30 COUNTS 31 35 0 0 0
M  V30 BEGIN ATOM
M  V30 1 O 0.0 0.0 0.0 0
M  V30 2 O -1.0006 -0.5666 0.0 0
M  V30 3 C 0.4943 1.0368 0.0 0 CFG=2
M  V30 4 C -2.158 -0.4822 0.0 0 CFG=1
M  V30 5 C 0.4822 -0.4822 0.0 0
M  V30 6 C -0.8439 1.8084 0.0 0 CFG=1
M  V30 7 C 1.8084 1.8084 0.0 0 CFG=1
M  V30 8 C -0.8439 -1.2297 0.0 0
M  V30 9 C -2.1701 1.0609 0.0 0 CFG=1
M  V30 10 C -3.4963 -1.2297 0.0 0
M  V30 11 C -0.856 3.3516 0.0 0
M  V30 12 C 1.7964 3.3516 0.0 0 CFG=2
M  V30 13 C 3.2552 1.3503 0.0 0
M  V30 14 C -3.5084 1.8325 0.0 0
M  V30 15 C -2.1822 2.6041 0.0 0
M  V30 16 C -4.8346 -0.4581 0.0 0 CFG=2
M  V30 17 C 0.4581 4.1232 0.0 0
M  V30 18 C 3.2431 3.8339 0.0 0 CFG=2
M  V30 19 C 1.941 4.8828 0.0 0
M  V30 20 C 4.1474 2.6041 0.0 0
M  V30 21 C -4.8466 1.085 0.0 0
M  V30 22 O -6.1728 -1.2056 0.0 0
M  V30 23 C 3.7013 5.3048 0.0 0 CFG=1
M  V30 24 C 5.1842 5.6303 0.0 0
M  V30 25 C 2.6644 6.4501 0.0 0
M  V30 26 C 5.6424 7.1012 0.0 0
M  V30 27 C 7.1253 7.4267 0.0 0 CFG=1
M  V30 28 C 7.5834 8.8976 0.0 0
M  V30 29 C 8.138 6.3055 0.0 0
M  V30 30 C 6.5466 10.0429 0.0 0
M  V30 31 C 9.0664 9.2231 0.0 0
M  V30 END ATOM
M  V30 BEGIN BOND
M  V30 1 1 1 2
M  V30 2 1 3 1 CFG=3
M  V30 3 1 4 2 CFG=3
M  V30 4 1 3 5
M  V30 5 1 3 6
M  V30 6 1 3 7
M  V30 7 1 4 8
M  V30 8 1 4 9
M  V30 9 1 4 10
M  V30 10 1 6 11 CFG=1
M  V30 11 1 7 12
M  V30 12 1 7 13 CFG=1
M  V30 13 1 9 14
M  V30 14 1 9 15 CFG=1
M  V30 15 1 10 16
M  V30 16 1 11 17
M  V30 17 1 12 18
M  V30 18 1 12 19 CFG=1
M  V30 19 1 13 20
M  V30 20 1 14 21
M  V30 21 1 16 22 CFG=1
M  V30 22 1 18 23
M  V30 23 1 23 24
M  V30 24 1 23 25 CFG=3
M  V30 25 2 24 26
M  V30 26 1 26 27
M  V30 27 1 27 28
M  V30 28 1 27 29 CFG=1
M  V30 29 1 28 30
M  V30 30 1 28 31
M  V30 31 2 5 8
M  V30 32 1 6 9
M  V30 33 1 12 17
M  V30 34 1 16 21
M  V30 35 1 18 20 CFG=1
M  V30 END BOND
M  V30 BEGIN COLLECTION
M  V30 MDLV30/STEABS ATOMS=(10 3 4 6 7 9 12 16 18 23 27)
M  V30 END COLLECTION
M  V30 END CTAB
M  END
>  <Molecule Name>
Ergosterol peroxide

$$$$
Triptotin F
Actelion Java MolfileCreator 2.0

  0  0  0  0  0  0              0 V3000
M  V30 BEGIN CTAB
M  V30 COUNTS 36 40 0 0 0
M  V30 BEGIN ATOM
M  V30 1 O -5.8235 0.375 -0.1875 0
M  V30 2 C -5.821 -1.1246 -0.2163 0
M  V30 3 O -7.1181 -1.8756 -0.2763 0
M  V30 4 C -4.5216 -1.8732 -0.1854 0 CFG=1
M  V30 5 C -3.2247 -1.122 -0.1253 0
M  V30 6 C -4.5193 -3.3729 -0.2142 0
M  V30 7 C -4.1335 -0.4242 -0.1853 0
M  V30 8 C -1.9252 -1.8706 -0.0941 0 CFG=2
M  V30 9 C -3.2198 -4.1215 -0.1831 0
M  V30 10 C -0.6282 -1.1195 -0.0341 0 CFG=2
M  V30 11 C -1.9227 -3.3704 -0.123 0 CFG=2
M  V30 12 C 0.6712 -1.8681 -0.0031 0 CFG=1
M  V30 13 C -0.6306 0.3802 -0.0051 0
M  V30 14 C -1.9277 -0.3708 -0.0651 0
M  V30 15 C -0.6233 -4.1189 -0.092 0
M  V30 16 C -1.9205 -4.8701 -0.152 0
M  V30 17 C 1.9682 -1.117 0.0569 0
M  V30 18 C 0.6734 -3.3678 -0.032 0
M  V30 19 C 2.1478 -2.1271 0.0436 0
M  V30 20 C 0.6663 1.1313 0.0549 0
M  V30 21 C 3.2676 -1.8656 0.0881 0
M  V30 22 C 1.9656 0.3826 0.086 0 CFG=1
M  V30 23 C 4.5646 -1.1145 0.1481 0 CFG=1
M  V30 24 C 3.2627 1.1337 0.1461 0
M  V30 25 C 1.9656 1.8827 0.0861 0
M  V30 26 C 4.5622 0.3851 0.1771 0
M  V30 27 C 5.864 -1.8632 0.1793 0 CFG=1
M  V30 28 C 3.2603 2.6335 0.1751 0
M  V30 29 C 5.8592 1.1362 0.2372 0
M  V30 30 O 5.8665 -3.3628 0.1503 0
M  V30 31 C 7.161 -1.1121 0.2392 0
M  V30 32 C 4.5572 3.3846 0.2351 0
M  V30 33 C 5.8567 2.6361 0.2662 0
M  V30 34 C 7.1587 0.3877 0.2683 0
M  V30 35 O 4.5548 4.8845 0.2641 0
M  V30 36 O 7.1537 3.3872 0.3262 0
M  V30 END ATOM
M  V30 BEGIN BOND
M  V30 1 2 1 2
M  V30 2 1 2 3
M  V30 3 1 2 4
M  V30 4 1 4 5
M  V30 5 1 4 6
M  V30 6 1 4 7
M  V30 7 1 5 8
M  V30 8 1 6 9
M  V30 9 1 8 10
M  V30 10 1 8 11
M  V30 11 1 10 12
M  V30 12 1 10 13
M  V30 13 1 10 14
M  V30 14 1 11 15
M  V30 15 1 11 16
M  V30 16 1 12 17
M  V30 17 1 12 18
M  V30 18 1 12 19
M  V30 19 1 13 20
M  V30 20 2 17 21
M  V30 21 1 17 22
M  V30 22 1 21 23
M  V30 23 1 22 24
M  V30 24 1 22 25
M  V30 25 1 23 26
M  V30 26 1 23 27
M  V30 27 1 24 28
M  V30 28 1 26 29
M  V30 29 1 27 30
M  V30 30 1 27 31
M  V30 31 2 28 32
M  V30 32 2 29 33
M  V30 33 1 29 34
M  V30 34 1 32 35
M  V30 35 1 33 36
M  V30 36 1 9 11
M  V30 37 1 15 18
M  V30 38 1 20 22
M  V30 39 2 24 26
M  V30 40 1 32 33
M  V30 END BOND
M  V30 BEGIN COLLECTION
M  V30 MDLV30/STEABS ATOMS=(8 4 8 10 11 12 22 23 27)
M  V30 END COLLECTION
M  V30 END CTAB
M  END
>  <Molecule Name>
Triptotin F

$$$$
Syringic acid
Actelion Java MolfileCreator 2.0

  0  0  0  0  0  0              0 V3000
M  V30 BEGIN CTAB
M  V30 COUNTS 14 14 0 0 0
M  V30 BEGIN ATOM
M  V30 1 O 0.0 0.0 0.0 0
M  V30 2 C -0.0117 -1.4851 0.0 0
M  V30 3 O 1.273 -2.2277 0.0 0
M  V30 4 C -1.3201 -2.2277 0.0 0
M  V30 5 C -2.6285 -1.4616 0.0 0
M  V30 6 C -1.3319 -3.7129 0.0 0
M  V30 7 C -3.9369 -2.2041 0.0 0
M  V30 8 C -2.6403 -4.4555 0.0 0
M  V30 9 O -5.2452 -1.438 0.0 0
M  V30 10 C -3.9486 -3.6893 0.0 0
M  V30 11 O -2.6521 -5.9407 0.0 0
M  V30 12 C -6.5536 -2.1806 0.0 0
M  V30 13 O -5.257 -4.4319 0.0 0
M  V30 14 C -3.9604 -6.6833 0.0 0
M  V30 END ATOM
M  V30 BEGIN BOND
M  V30 1 2 1 2
M  V30 2 1 2 3
M  V30 3 1 2 4
M  V30 4 2 4 5
M  V30 5 1 4 6
M  V30 6 1 5 7
M  V30 7 2 6 8
M  V30 8 1 7 9
M  V30 9 2 7 10
M  V30 10 1 8 11
M  V30 11 1 9 12
M  V30 12 1 10 13
M  V30 13 1 11 14
M  V30 14 1 8 10
M  V30 END BOND
M  V30 END CTAB
M  END
>  <Molecule Name>
Syringic acid

$$$$
Pyrogallol gallate
Actelion Java MolfileCreator 2.0

  0  0  0  0  0  0              0 V3000
M  V30 BEGIN CTAB
M  V30 COUNTS 21 22 0 0 0
M  V30 BEGIN ATOM
M  V30 1 O 0.0 0.0 0.0 0
M  V30 2 C -0.0118 -1.4914 0.0 0
M  V30 3 O -1.3257 -2.2253 0.0 0
M  V30 4 C 1.2783 -2.2253 0.0 0
M  V30 5 C -2.6396 -1.4677 0.0 0
M  V30 6 C 2.5685 -1.4677 0.0 0
M  V30 7 C 1.2665 -3.7167 0.0 0
M  V30 8 C -3.9535 -2.2016 0.0 0
M  V30 9 C -2.6514 0.0473 0.0 0
M  V30 10 C 3.8588 -2.2016 0.0 0
M  V30 11 C 2.5567 -4.4506 0.0 0
M  V30 12 O -3.9653 -3.693 0.0 0
M  V30 13 C -5.2673 -1.444 0.0 0
M  V30 14 C -3.9653 0.8049 0.0 0
M  V30 15 O 5.149 -1.444 0.0 0
M  V30 16 C 3.8469 -3.693 0.0 0
M  V30 17 O 2.5449 -5.942 0.0 0
M  V30 18 O -6.5812 -2.1779 0.0 0
M  V30 19 C -5.2792 0.071 0.0 0
M  V30 20 O 5.1371 -4.4269 0.0 0
M  V30 21 O -6.5931 0.8285 0.0 0
M  V30 END ATOM
M  V30 BEGIN BOND
M  V30 1 2 1 2
M  V30 2 1 2 3
M  V30 3 1 2 4
M  V30 4 1 3 5
M  V30 5 2 4 6
M  V30 6 1 4 7
M  V30 7 2 5 8
M  V30 8 1 5 9
M  V30 9 1 6 10
M  V30 10 2 7 11
M  V30 11 1 8 12
M  V30 12 1 8 13
M  V30 13 2 9 14
M  V30 14 1 10 15
M  V30 15 2 10 16
M  V30 16 1 11 17
M  V30 17 1 13 18
M  V30 18 2 13 19
M  V30 19 1 16 20
M  V30 20 1 19 21
M  V30 21 1 11 16
M  V30 22 1 14 19
M  V30 END BOND
M  V30 END CTAB
M  END
>  <Molecule Name>
Pyrogallol gallate

$$$$
Yohimbic acid
Actelion Java MolfileCreator 2.0

  0  0  0  0  0  0              0 V3000
M  V30 BEGIN CTAB
M  V30 COUNTS 25 29 0 0 0
M  V30 BEGIN ATOM
M  V30 1 O 1.3661 -2.2127 -0.3901 0
M  V30 2 C 2.3328 -1.8287 -0.3901 0
M  V30 3 O 2.9539 -2.6632 -0.39 0
M  V30 4 C 2.4837 -0.7995 -0.39 0 CFG=2
M  V30 5 C 3.5206 -0.7314 -0.4376 0 CFG=2
M  V30 6 C 1.914 0.0531 -0.2151 0 CFG=2
M  V30 7 O 4.1416 -1.5658 -0.4376 0
M  V30 8 C 3.9877 0.1892 -0.3102 0
M  V30 9 C 2.3811 0.9737 -0.0877 0 CFG=1
M  V30 10 C 0.877 -0.0149 -0.1676 0
M  V30 11 C 3.418 1.0417 -0.1352 0
M  V30 12 C 1.8114 1.8262 0.0871 0
M  V30 13 C 0.3073 0.8376 0.0072 0 CFG=2
M  V30 14 N 0.7745 1.7583 0.1347 0
M  V30 15 C -0.7295 0.7696 0.0548 0
M  V30 16 C 0.2047 2.6109 0.3096 0
M  V30 17 N -1.3793 -0.0366 -0.043 0
M  V30 18 C -1.2993 1.6222 0.2297 0
M  V30 19 C -0.8321 2.5428 0.3571 0
M  V30 20 C -2.3508 0.3175 0.0713 0
M  V30 21 C -2.3012 1.3428 0.2399 0
M  V30 22 C -3.2739 -0.1609 0.0439 0
M  V30 23 C -3.1749 1.8896 0.3811 0
M  V30 24 C -4.1476 0.3857 0.1849 0
M  V30 25 C -4.0982 1.411 0.3535 0
M  V30 END ATOM
M  V30 BEGIN BOND
M  V30 1 2 1 2
M  V30 2 1 2 3
M  V30 3 1 2 4
M  V30 4 1 4 5
M  V30 5 1 4 6
M  V30 6 1 5 7
M  V30 7 1 5 8
M  V30 8 1 6 9
M  V30 9 1 6 10
M  V30 10 1 8 11
M  V30 11 1 9 12
M  V30 12 1 10 13
M  V30 13 1 12 14
M  V30 14 1 13 15
M  V30 15 1 14 16
M  V30 16 1 15 17
M  V30 17 2 15 18
M  V30 18 1 16 19
M  V30 19 1 17 20
M  V30 20 1 18 21
M  V30 21 1 20 22
M  V30 22 1 21 23
M  V30 23 2 22 24
M  V30 24 2 23 25
M  V30 25 1 9 11
M  V30 26 1 13 14
M  V30 27 1 18 19
M  V30 28 2 20 21
M  V30 29 1 24 25
M  V30 END BOND
M  V30 BEGIN COLLECTION
M  V30 MDLV30/STEABS ATOMS=(5 4 5 6 9 13)
M  V30 END COLLECTION
M  V30 END CTAB
M  END
>  <Molecule Name>
Yohimbic acid

$$$$
5,7-Dihydrox-4'-methoxyisoflavone
Actelion Java MolfileCreator 2.0

  0  0  0  0  0  0              0 V3000
M  V30 BEGIN CTAB
M  V30 COUNTS 21 23 0 0 0
M  V30 BEGIN ATOM
M  V30 1 O 0.0 0.0 0.0 0
M  V30 2 C -0.0117 1.5089 0.0 0
M  V30 3 C -1.3203 2.2751 0.0 0
M  V30 4 C 1.2731 2.2751 0.0 0
M  V30 5 C -1.332 3.7841 0.0 0
M  V30 6 C -2.6288 1.5325 0.0 0
M  V30 7 C 2.5581 1.5325 0.0 0
M  V30 8 C 1.2613 3.7841 0.0 0
M  V30 9 O -0.0471 4.5503 0.0 0
M  V30 10 C -2.6406 4.5503 0.0 0
M  V30 11 O -2.6406 0.0471 0.0 0
M  V30 12 C -3.9373 2.2987 0.0 0
M  V30 13 C 3.843 2.2987 0.0 0
M  V30 14 C 2.5463 0.0471 0.0 0
M  V30 15 C -3.9491 3.8076 0.0 0
M  V30 16 C 5.1279 1.556 0.0 0
M  V30 17 C 3.8312 -0.6955 0.0 0
M  V30 18 O -5.2576 4.5739 0.0 0
M  V30 19 C 5.1162 0.0707 0.0 0
M  V30 20 O 6.4011 -0.6719 0.0 0
M  V30 21 C 7.686 0.0943 0.0 0
M  V30 END ATOM
M  V30 BEGIN BOND
M  V30 1 2 1 2
M  V30 2 1 2 3
M  V30 3 1 2 4
M  V30 4 2 3 5
M  V30 5 1 3 6
M  V30 6 1 4 7
M  V30 7 2 4 8
M  V30 8 1 5 9
M  V30 9 1 5 10
M  V30 10 1 6 11
M  V30 11 2 6 12
M  V30 12 2 7 13
M  V30 13 1 7 14
M  V30 14 2 10 15
M  V30 15 1 13 16
M  V30 16 2 14 17
M  V30 17 1 15 18
M  V30 18 2 16 19
M  V30 19 1 19 20
M  V30 20 1 20 21
M  V30 21 1 8 9
M  V30 22 1 12 15
M  V30 23 1 17 19
M  V30 END BOND
M  V30 END CTAB
M  END
>  <Molecule Name>
5,7-Dihydrox-4'-methoxyisoflavone

$$$$
Exifone 
Actelion Java MolfileCreator 2.0

  0  0  0  0  0  0              0 V3000
M  V30 BEGIN CTAB
M  V30 COUNTS 20 21 0 0 0
M  V30 BEGIN ATOM
M  V30 1 O 0.0 0.0 0.0 0
M  V30 2 C -0.0118 -1.496 0.0 0
M  V30 3 C -1.3297 -2.2321 0.0 0
M  V30 4 C 1.2822 -2.2321 0.0 0
M  V30 5 C -1.3416 -3.7281 0.0 0
M  V30 6 C -2.6477 -1.4722 0.0 0
M  V30 7 C 1.2704 -3.7281 0.0 0
M  V30 8 C 2.5764 -1.4722 0.0 0
M  V30 9 O -0.0474 -4.4642 0.0 0
M  V30 10 C -2.6595 -4.4642 0.0 0
M  V30 11 C -3.9656 -2.2084 0.0 0
M  V30 12 C 2.5645 -4.4642 0.0 0
M  V30 13 C 3.8706 -2.2084 0.0 0
M  V30 14 O -2.6714 -5.9603 0.0 0
M  V30 15 C -3.9774 -3.7044 0.0 0
M  V30 16 O 2.5527 -5.9603 0.0 0
M  V30 17 C 3.8587 -3.7044 0.0 0
M  V30 18 O 5.1648 -1.4485 0.0 0
M  V30 19 O -5.2954 -4.4405 0.0 0
M  V30 20 O 5.1529 -4.4405 0.0 0
M  V30 END ATOM
M  V30 BEGIN BOND
M  V30 1 2 1 2
M  V30 2 1 2 3
M  V30 3 1 2 4
M  V30 4 2 3 5
M  V30 5 1 3 6
M  V30 6 2 4 7
M  V30 7 1 4 8
M  V30 8 1 5 9
M  V30 9 1 5 10
M  V30 10 2 6 11
M  V30 11 1 7 12
M  V30 12 2 8 13
M  V30 13 1 10 14
M  V30 14 2 10 15
M  V30 15 1 12 16
M  V30 16 2 12 17
M  V30 17 1 13 18
M  V30 18 1 15 19
M  V30 19 1 17 20
M  V30 20 1 11 15
M  V30 21 1 13 17
M  V30 END BOND
M  V30 END CTAB
M  END
>  <Molecule Name>
Exifone 

$$$$
